geometry optimzed in LAMMPS
_audit_creation_date              2020-12-01 
_audit_creation_method            'lammps2cif' 
_symmetry_space_group_name_H-M    'P1' 
_symmetry_Int_Tables_number       1 
_symmetry_cell_setting            triclinic 
loop_ 
_symmetry_equiv_pos_as_xyz 
  x,y,z 
_cell_length_a                    49.6919032 
_cell_length_b                    49.68834134481386 
_cell_length_c                    29.203163473269427 
_cell_angle_alpha                 89.98912970159611 
_cell_angle_beta                  89.50312756537696 
_cell_angle_gamma                 89.81749115958146 
loop_ 
_atom_site_label 
_atom_site_type_symbol 
_atom_site_fract_x 
_atom_site_fract_y 
_atom_site_fract_z 
_atom_site_charge 
O1          O  0.51860914  0.70424455  0.96841854    -0.84700
O2          O  0.54712662  0.72208696  0.04179973    -0.81800
C3          C  0.56614660  0.72486344  0.06964449     0.98700
O4          O  0.59045829  0.72490292  0.05507688    -0.81800
O5          O  0.60522065  0.67453473  0.01918569    -0.84400
C6          C  0.60632863  0.65465079  0.99240015     1.03300
O7          O  0.59593308  0.65659972  0.95311290    -0.77200
O8          O  0.54090207  0.66611887  0.96487863    -0.77400
C9          C  0.51902085  0.67859879  0.97124414     1.03200
O10         O  0.54677196  0.74376889  0.91127509    -0.84700
O11         O  0.57237119  0.76393156  0.99102661    -0.81800
C12         C  0.59721731  0.76787377  0.98312313     0.98800
O13         O  0.61196376  0.74859908  0.97076250    -0.81800
O14         O  0.62815988  0.69936819  0.93787669    -0.84400
C15         C  0.62125340  0.69802612  0.89599035     1.03200
O16         O  0.59669517  0.69792539  0.88573082    -0.77200
O17         O  0.54176105  0.70222833  0.88845379    -0.77400
C18         C  0.53856421  0.72718628  0.88173857     1.03200
Cr19       Cr  0.54834978  0.73190638  0.97693179     1.93700
Cr20       Cr  0.60636165  0.71168245  0.99376352     1.93200
Cr21       Cr  0.56929859  0.68266795  0.92636191     1.39100
O22         O  0.57470613  0.70870759  0.96627287    -1.22500
O23         O  0.72688777  0.49268520  0.58949524    -0.84700
O24         O  0.74406787  0.52051612  0.51632352    -0.81800
C25         C  0.74349331  0.53925193  0.48750741     0.98700
O26         O  0.74337885  0.56377989  0.50014847    -0.81800
O27         O  0.69308685  0.57633366  0.53513734    -0.84400
C28         C  0.67278516  0.57705595  0.56124220     1.03300
O29         O  0.67493762  0.56831216  0.60155453    -0.77200
O30         O  0.68833427  0.51434057  0.58919676    -0.77400
C31         C  0.70163732  0.49294784  0.58254935     1.03200
O32         O  0.76384033  0.52325035  0.64722976    -0.84700
O33         O  0.78423082  0.54881318  0.56727905    -0.81800
C34         C  0.78682708  0.57398362  0.57321860     0.98800
O35         O  0.76657955  0.58832583  0.58193426    -0.81800
O36         O  0.71679562  0.60177226  0.61500372    -0.84400
C37         C  0.71486025  0.59573208  0.65737742     1.03200
O38         O  0.71484602  0.57145339  0.66979814    -0.77200
O39         O  0.72188759  0.51674278  0.66719530    -0.77400
C40         C  0.74666228  0.51430048  0.67542886     1.03200
Cr41       Cr  0.75316727  0.52353421  0.58117986     1.93700
Cr42       Cr  0.72999497  0.58012767  0.56023980     1.93200
Cr43       Cr  0.70204886  0.54311110  0.62886072     1.39100
O44         O  0.72866970  0.54913232  0.58999015    -1.22500
O45         O  0.54484148  0.25350340  0.53883694    -0.84700
O46         O  0.51529964  0.27365283  0.46855596    -0.81800
C47         C  0.51586879  0.29905556  0.47448862     0.98700
O48         O  0.53771316  0.31160210  0.46791054    -0.81800
O49         O  0.59234898  0.32231003  0.45496967    -0.84400
C50         C  0.60261154  0.32309275  0.49427008     1.03300
O51         O  0.60292071  0.30209196  0.51848260    -0.77200
O52         O  0.58861490  0.25128235  0.54976514    -0.77400
C53         C  0.56455363  0.25028233  0.56496262     1.03200
O54         O  0.56986954  0.21362607  0.48429835    -0.84700
O55         O  0.54362305  0.23651865  0.40711269    -0.81800
C56         C  0.53528333  0.25432129  0.37979978     0.98800
O57         O  0.53879903  0.27889761  0.38848900    -0.81800
O58         O  0.59434652  0.28460193  0.38254260    -0.84400
C59         C  0.61892932  0.28307397  0.39333060     1.03200
O60         O  0.62536878  0.27933523  0.43499122    -0.77200
O61         O  0.60950885  0.22893853  0.46466137    -0.77400
C62         C  0.59475378  0.20961890  0.47674285     1.03200
Cr63       Cr  0.54567294  0.24605254  0.47329105     1.93700
Cr64       Cr  0.56626652  0.29709143  0.42655808     1.93200
Cr65       Cr  0.60398090  0.26566184  0.48988243     1.39100
O66         O  0.57210282  0.26951320  0.46350924    -1.22500
O67         O  0.75985386  0.43723932  0.00936920    -0.84700
O68         O  0.72730071  0.47458447  0.05198916    -0.81800
C69         C  0.70605952  0.48211245  0.07259810     0.98700
O70         O  0.69636318  0.46801969  0.10464037    -0.81800
O71         O  0.67430747  0.42053858  0.07298642    -0.84400
C72         C  0.67233940  0.39664334  0.05892339     1.03300
O73         O  0.69287781  0.38178493  0.05818997    -0.77200
O74         O  0.72698920  0.40866924  0.99658252    -0.77400
C75         C  0.74361383  0.42609582  0.98215218     1.03200
O76         O  0.78449684  0.42341409  0.09523937    -0.84700
O77         O  0.75280986  0.46438864  0.13755403    -0.81800
C78         C  0.74139740  0.45690328  0.17424889     0.98800
O79         O  0.72393466  0.43858773  0.17400268    -0.81800
O80         O  0.70038018  0.39220533  0.14635674    -0.84400
C81         C  0.71834715  0.37411518  0.14844945     1.03200
O82         O  0.73639002  0.37215643  0.11761110    -0.77200
O83         O  0.77181061  0.39098195  0.04976671    -0.77400
C84         C  0.78999723  0.40232095  0.07249596     1.03200
Cr85       Cr  0.75415506  0.44778128  0.07475818     1.93700
Cr86       Cr  0.70108026  0.42935855  0.12131074     1.93200
Cr87       Cr  0.73187135  0.39103681  0.05760690     1.39100
O88         O  0.72914522  0.42288837  0.08505935    -1.22500
O89         O  0.50362107  0.27638219  0.96485015    -0.84700
O90         O  0.47500143  0.25741626  0.03641098    -0.81800
C91         C  0.45609008  0.25483702  0.06484099     0.98700
O92         O  0.43187628  0.25306064  0.05098275    -0.81800
O93         O  0.41751237  0.30300001  0.01813811    -0.84400
C94         C  0.41644622  0.32346038  0.99293520     1.03300
O95         O  0.42549010  0.32226504  0.95256678    -0.77200
O96         O  0.47939245  0.31335699  0.96636182    -0.77400
C97         C  0.50163085  0.30165582  0.97178688     1.03200
O98         O  0.47717878  0.23703497  0.90617942    -0.84700
O99         O  0.45090473  0.21523607  0.98537761    -0.81800
C100        C  0.42609146  0.21088744  0.97813797     0.98800
O101        O  0.41102898  0.22990172  0.96597809    -0.81800
O102        O  0.39467711  0.27987019  0.93500704    -0.84400
C103        C  0.40150707  0.28326249  0.89304210     1.03200
O104        O  0.42605797  0.28349189  0.88196456    -0.77200
O105        O  0.48089999  0.27944058  0.88732178    -0.77400
C106        C  0.48421742  0.25486195  0.87762814     1.03200
Cr107      Cr  0.47452203  0.24784433  0.97203887     1.93700
Cr108      Cr  0.41607953  0.26658402  0.99038870     1.93200
Cr109      Cr  0.45267072  0.29757306  0.92491399     1.39100
O110        O  0.44752758  0.27033462  0.96232401    -1.22500
O111        O  0.29324425  0.48785331  0.58996730    -0.84700
O112        O  0.27721764  0.45980971  0.51590923    -0.81800
C113        C  0.27608447  0.44090052  0.48753159     0.98700
O114        O  0.27490367  0.41653679  0.50093615    -0.81800
O115        O  0.32440252  0.40176551  0.53516503    -0.84400
C116        C  0.34478372  0.40167353  0.56049874     1.03300
O117        O  0.34266169  0.41069022  0.60074994    -0.77200
O118        O  0.33115356  0.46522790  0.59038690    -0.77400
C119        C  0.31866193  0.48712958  0.58430521     1.03200
O120        O  0.25400597  0.45891650  0.64539108    -0.84700
O121        O  0.23438152  0.43353244  0.56406258    -0.81800
C122        C  0.23062962  0.40849578  0.57046122     0.98800
O123        O  0.25002653  0.39385153  0.58254229    -0.81800
O124        O  0.29928761  0.37715411  0.61565885    -0.84400
C125        C  0.30131724  0.38331153  0.65792287     1.03200
O126        O  0.30210381  0.40775931  0.66962998    -0.77200
O127        O  0.29584784  0.46258896  0.66769926    -0.77400
C128        C  0.27094778  0.46535246  0.67554792     1.03200
Cr129      Cr  0.26627933  0.45769739  0.58001103     1.93700
Cr130      Cr  0.28723704  0.39980959  0.56086621     1.93200
Cr131      Cr  0.31589939  0.43622632  0.62895313     1.39100
O132        O  0.28957950  0.43104625  0.58998487    -1.22500
O133        O  0.47548225  0.72733710  0.54748477    -0.84700
O134        O  0.50673796  0.70985720  0.47647835    -0.81800
C135        C  0.50616921  0.68439543  0.48152160     0.98700
O136        O  0.48441478  0.67193437  0.47531863    -0.81800
O137        O  0.43089072  0.65967885  0.46015289    -0.84400
C138        C  0.42041872  0.65806410  0.49970746     1.03300
O139        O  0.41935810  0.67885315  0.52435188    -0.77200
O140        O  0.43156157  0.72955244  0.55740123    -0.77400
C141        C  0.45527887  0.72861938  0.57365001     1.03200
O142        O  0.45025466  0.76850185  0.49251393    -0.84700
O143        O  0.47894023  0.74761103  0.41585519    -0.81800
C144        C  0.48800522  0.73037854  0.38778063     0.98800
O145        O  0.48510655  0.70557175  0.39613279    -0.81800
O146        O  0.43057376  0.69878714  0.38844878    -0.84400
C147        C  0.40583991  0.69922067  0.39814094     1.03200
O148        O  0.39812352  0.70171669  0.43977884    -0.77200
O149        O  0.41158042  0.75200432  0.47128329    -0.77400
C150        C  0.42569439  0.77196454  0.48195242     1.03200
Cr151      Cr  0.47570387  0.73673887  0.48195726     1.93700
Cr152      Cr  0.45721003  0.68606810  0.43302633     1.93200
Cr153      Cr  0.41769860  0.71547390  0.49625516     1.39100
O154        O  0.45003681  0.71294940  0.47048161    -1.22500
O155        O  0.27852549  0.52408565  0.01578586    -0.84700
O156        O  0.29726527  0.49561188  0.08694753    -0.81800
C157        C  0.32250977  0.49580203  0.07926605     0.98700
O158        O  0.33563413  0.51722903  0.08443853    -0.81800
O159        O  0.34699207  0.57160445  0.09714639    -0.84400
C160        C  0.34739928  0.58143014  0.05720724     1.03300
O161        O  0.32659289  0.58058227  0.03296353    -0.77200
O162        O  0.27494380  0.56754923  0.00347889    -0.77400
C163        C  0.27381780  0.54327272  0.98919361     1.03200
O164        O  0.23812902  0.55018641  0.06863699    -0.84700
O165        O  0.26019903  0.52478723  0.14631216    -0.81800
C166        C  0.27730955  0.51540950  0.17363299     0.98800
O167        O  0.30221287  0.51749900  0.16490027    -0.81800
O168        O  0.30839559  0.57211199  0.16947223    -0.84400
C169        C  0.30945299  0.59663140  0.15911527     1.03200
O170        O  0.30565603  0.60391383  0.11762449    -0.77200
O171        O  0.25456212  0.58891565  0.08976760    -0.77400
C172        C  0.23481060  0.57494610  0.07755217     1.03200
Cr173      Cr  0.27014075  0.52566720  0.08061177     1.93700
Cr174      Cr  0.32133937  0.54503057  0.12610589     1.93200
Cr175      Cr  0.29062384  0.58299272  0.06279834     1.39100
O176        O  0.29398883  0.55136337  0.08950092    -1.22500
O177        O  0.02682896  0.20933846  0.50019115    -0.84700
O178        O  0.06360634  0.24287188  0.54110386    -0.81800
C179        C  0.07432399  0.22756108  0.57058245     0.98700
O180        O  0.09199810  0.21055778  0.55842054    -0.81800
O181        O  0.11790928  0.17341514  0.50261706    -0.84400
C182        C  0.10183913  0.15388533  0.50411525     1.03300
O183        O  0.07881920  0.15620277  0.48683261    -0.77200
O184        O  0.03333131  0.17839524  0.44782304    -0.77400
C185        C  0.01875869  0.18883583  0.47872132     1.03200
O186        O  0.03890319  0.23185712  0.41223556    -0.84700
O187        O  0.07882892  0.26467841  0.45371232    -0.81800
C188        C  0.10003100  0.27024824  0.47557588     0.98800
O189        O  0.11113791  0.25266094  0.50015739    -0.81800
O190        O  0.13046858  0.21478084  0.43831969    -0.84400
C191        C  0.12891824  0.19606433  0.40911057     1.03200
O192        O  0.11099963  0.17807979  0.41279190    -0.77200
O193        O  0.06618220  0.20272118  0.37973742    -0.77400
C194        C  0.04676491  0.21893380  0.37708385     1.03200
Cr195      Cr  0.05414197  0.23528544  0.47590352     1.93700
Cr196      Cr  0.11038331  0.21268229  0.49766368     1.93200
Cr197      Cr  0.07289836  0.18114034  0.43483029     1.39100
O198        O  0.07904821  0.20988026  0.46900846    -1.22500
O199        O  0.22659241  0.99709735  0.08805054    -0.84700
O200        O  0.24669369  0.02633838  0.01745702    -0.81800
C201        C  0.24890536  0.04565266  0.98983105     0.98700
O202        O  0.24770476  0.06984562  0.00400781    -0.81800
O203        O  0.19693749  0.08377930  0.03736370    -0.84400
C204        C  0.17630244  0.08375369  0.06273600     1.03300
O205        O  0.17767340  0.07368710  0.10230274    -0.77200
O206        O  0.18828055  0.01915574  0.08873446    -0.77400
C207        C  0.20117316  0.99751408  0.08216371     1.03200
O208        O  0.26385567  0.02463158  0.14943115    -0.84700
O209        O  0.28691827  0.05116795  0.07185932    -0.81800
C210        C  0.29021353  0.07614690  0.07893258     0.98800
O211        O  0.27016552  0.09075634  0.08820995    -0.81800
O212        O  0.22032001  0.10579690  0.12009610    -0.84400
C213        C  0.21746749  0.09891333  0.16193692     1.03200
O214        O  0.21636528  0.07437418  0.17271845    -0.77200
O215        O  0.22150259  0.01936427  0.16764193    -0.77400
C216        C  0.24606251  0.01578344  0.17665982     1.03200
Cr217      Cr  0.25431126  0.02705055  0.08284213     1.93700
Cr218      Cr  0.23360139  0.08493851  0.06450545     1.93200
Cr219      Cr  0.20314433  0.04715388  0.12968047     1.39100
O220        O  0.23048765  0.05318484  0.09197398    -1.22500
O221        O  0.04387399  0.75668233  0.03817346    -0.84700
O222        O  0.01711608  0.77226765  0.96187701    -0.81800
C223        C  0.01716518  0.79775170  0.96584608     0.98700
O224        O  0.03874353  0.81069774  0.95984029    -0.81800
O225        O  0.09307989  0.82393663  0.95080531    -0.84400
C226        C  0.10175247  0.82634821  0.99119888     1.03300
O227        O  0.10020182  0.80648799  0.01788176    -0.77200
O228        O  0.08692815  0.75662117  0.05421321    -0.77400
C229        C  0.06237515  0.75602716  0.06723783     1.03200
O230        O  0.07272557  0.71504925  0.99084875    -0.84700
O231        O  0.04799255  0.73360626  0.90858414    -0.81800
C232        C  0.04115558  0.74985286  0.87737514     0.98800
O233        O  0.04329993  0.77494286  0.88375517    -0.81800
O234        O  0.09785769  0.78237949  0.88378103    -0.84400
C235        C  0.12192583  0.78233263  0.89693419     1.03200
O236        O  0.12708915  0.78138007  0.93966492    -0.77200
O237        O  0.11183812  0.73248528  0.97374329    -0.77400
C238        C  0.09800292  0.71247542  0.98538887     1.03200
Cr239      Cr  0.04767892  0.74612242  0.97368028     1.93700
Cr240      Cr  0.06850760  0.79600803  0.92291349     1.93200
Cr241      Cr  0.10408439  0.76925287  0.99415389     1.39100
O242        O  0.07354330  0.77026955  0.96367025    -1.22500
O243        O  0.24054906  0.95516168  0.51529618    -0.84700
O244        O  0.22164074  0.98349587  0.58770229    -0.81800
C245        C  0.19630260  0.98103680  0.58319208     0.98700
O246        O  0.18522126  0.95871476  0.59115480    -0.81800
O247        O  0.17875514  0.90418465  0.60536108    -0.84400
C248        C  0.17721044  0.89471794  0.56537263     1.03300
O249        O  0.19754537  0.89562485  0.53935568    -0.77200
O250        O  0.24694285  0.91181464  0.50452136    -0.77400
C251        C  0.24372430  0.93547632  0.48875890     1.03200
O252        O  0.28447746  0.93285956  0.56640718    -0.84700
O253        O  0.26246400  0.95921164  0.64555378    -0.81800
C254        C  0.24475783  0.96638745  0.67455311     0.98800
O255        O  0.22031839  0.96111057  0.66728897    -0.81800
O256        O  0.21875286  0.90624551  0.67416920    -0.84400
C257        C  0.22071647  0.88172632  0.66374052     1.03200
O258        O  0.22299667  0.87481965  0.62180793    -0.77200
O259        O  0.27163717  0.89287088  0.58881917    -0.77400
C260        C  0.28999582  0.90843005  0.57549435     1.03200
Cr261      Cr  0.25097765  0.95545273  0.58004440     1.93700
Cr262      Cr  0.20282489  0.93223066  0.63142624     1.93200
Cr263      Cr  0.23449848  0.89621014  0.56559879     1.39100
O264        O  0.22961720  0.92785545  0.59226179    -1.22500
O265        O  0.00699972  0.76963868  0.47794365    -0.84700
O266        O  0.97638127  0.74993151  0.54719967    -0.81800
C267        C  0.95655485  0.74850620  0.57412500     0.98700
O268        O  0.93263610  0.75157549  0.55999706    -0.81800
O269        O  0.92132330  0.80295067  0.52840796    -0.84400
C270        C  0.92222162  0.82386424  0.50404517     1.03300
O271        O  0.93240749  0.82262231  0.46442941    -0.77200
O272        O  0.98576178  0.80853114  0.47776728    -0.77400
C273        C  0.00682045  0.79491894  0.48489979     1.03200
O274        O  0.97882084  0.73428606  0.41400176    -0.84700
O275        O  0.95033905  0.71207727  0.49095750    -0.81800
C276        C  0.92518514  0.70978339  0.48528237     0.98800
O277        O  0.91106435  0.73016146  0.47613718    -0.81800
O278        O  0.89817747  0.78130782  0.44554154    -0.84400
C279        C  0.90526498  0.78419547  0.40381550     1.03200
O280        O  0.92982827  0.78434261  0.39241843    -0.77200
O281        O  0.98481093  0.77664280  0.39745504    -0.77400
C282        C  0.98798724  0.75215202  0.38723156     1.03200
Cr283      Cr  0.97584376  0.74337227  0.48121648     1.93700
Cr284      Cr  0.91846513  0.76657557  0.50027651     1.93200
Cr285      Cr  0.95764120  0.79574290  0.43605818     1.39100
O286        O  0.95047168  0.76831643  0.47269755    -1.22500
O287        O  0.79591619  0.98118979  0.09621421    -0.84700
O288        O  0.77764355  0.95495658  0.02120177    -0.81800
C289        C  0.77575529  0.93715140  0.99079682     0.98700
O290        O  0.77608724  0.91244684  0.00189407    -0.81800
O291        O  0.82778338  0.90046627  0.03096446    -0.84400
C292        C  0.84874579  0.89978725  0.05497465     1.03300
O293        O  0.84739484  0.90589966  0.09682452    -0.77200
O294        O  0.83434719  0.95947483  0.09620494    -0.77400
C295        C  0.82129038  0.98100570  0.09046961     1.03200
O296        O  0.75916567  0.95032040  0.15272290    -0.84700
O297        O  0.73780737  0.92616197  0.07288410    -0.81800
C298        C  0.73500599  0.90084346  0.07674869     0.98800
O299        O  0.75533685  0.88597370  0.08280813    -0.81800
O300        O  0.80721585  0.87020074  0.10813461    -0.84400
C301        C  0.81014093  0.87379077  0.15096970     1.03200
O302        O  0.80885451  0.89716483  0.16777354    -0.77200
O303        O  0.80105856  0.95218536  0.17532569    -0.77400
C304        C  0.77631436  0.95604031  0.18290594     1.03200
Cr305      Cr  0.76941259  0.95078957  0.08652217     1.93700
Cr306      Cr  0.79164061  0.89469428  0.05878399     1.93200
Cr307      Cr  0.82057939  0.92843254  0.13097518     1.39100
O308        O  0.79356235  0.92449027  0.09234392    -1.22500
O309        O  0.97601912  0.22260300  0.03707920    -0.84700
O310        O  0.00319365  0.20159453  0.96624824    -0.81800
C311        C  0.00228132  0.17640498  0.97475172     0.98700
O312        O  0.98065664  0.16365288  0.96885671    -0.81800
O313        O  0.92624904  0.15350722  0.95765449    -0.84400
C314        C  0.91880984  0.15164383  0.99888402     1.03300
O315        O  0.91954943  0.17224740  0.02380935    -0.77200
O316        O  0.93322880  0.22256178  0.05612137    -0.77400
C317        C  0.95795160  0.22355052  0.06731778     1.03200
O318        O  0.94940853  0.26219855  0.98342151    -0.84700
O319        O  0.97461265  0.23872098  0.90542592    -0.81800
C320        C  0.98220658  0.22067173  0.87774237     0.98800
O321        O  0.98009947  0.19626584  0.88901554    -0.81800
O322        O  0.92510565  0.19249014  0.88706587    -0.84400
C323        C  0.90077468  0.19435305  0.89924699     1.03200
O324        O  0.89449732  0.19612711  0.94177955    -0.77200
O325        O  0.90911293  0.24556313  0.97362467    -0.77400
C326        C  0.92415781  0.26550155  0.97960927     1.03200
Cr327      Cr  0.97360970  0.22973291  0.97210117     1.93700
Cr328      Cr  0.95261821  0.17859710  0.92866194     1.93200
Cr329      Cr  0.91650207  0.20891998  0.99651920     1.39100
O330        O  0.94738496  0.20608066  0.96597853    -1.22500
O331        O  0.77402102  0.02836383  0.51368214    -0.84700
O332        O  0.79521105  0.99782440  0.58185722    -0.81800
C333        C  0.82059397  0.99722865  0.57475783     0.98700
O334        O  0.83441452  0.01835827  0.58030339    -0.81800
O335        O  0.84893781  0.07227569  0.59748912    -0.84400
C336        C  0.85041048  0.08317910  0.55869842     1.03300
O337        O  0.83002131  0.08299489  0.53353248    -0.77200
O338        O  0.78008636  0.07152509  0.49897949    -0.77400
C339        C  0.77550399  0.04758695  0.48563336     1.03200
O340        O  0.73761729  0.05546706  0.57355424    -0.84700
O341        O  0.76095692  0.02743433  0.64805502    -0.81800
C342        C  0.77883629  0.01763501  0.67370227     0.98800
O343        O  0.80311434  0.01894263  0.66121885    -0.81800
O344        O  0.81016639  0.07370172  0.66809288    -0.84400
C345        C  0.80843685  0.09841229  0.65842619     1.03200
O346        O  0.80592414  0.10601301  0.61683025    -0.77200
O347        O  0.75623580  0.09501004  0.58151850    -0.77400
C348        C  0.73549286  0.08084841  0.57711219     1.03200
Cr349      Cr  0.76890942  0.02948082  0.58035313     1.93700
Cr350      Cr  0.82187485  0.04644660  0.62341687     1.93200
Cr351      Cr  0.79314030  0.08615525  0.55996546     1.39100
O352        O  0.79435051  0.05425067  0.58749087    -1.22500
C353        C  0.86726386  0.18361823  0.78384761    -0.13700
C354        C  0.84216991  0.17334310  0.79736188     0.16700
C355        C  0.83497833  0.17453636  0.84435717     0.03000
C356        C  0.85365463  0.18347326  0.87677447    -0.12200
C357        C  0.87966944  0.19140428  0.86354412    -0.03300
C358        C  0.88580356  0.19284255  0.81605302     0.02200
C359        C  0.82710583  0.15652988  0.76375218     0.09000
N360        N  0.80913853  0.16584321  0.86015720     0.65400
H361        H  0.84818103  0.18270437  0.91267579     0.18300
N362        N  0.91129570  0.20217347  0.79960361     0.75900
H363        H  0.87351758  0.18260138  0.74837747     0.09800
C364        C  0.82252499  0.16485203  0.71809944     0.03500
C365        C  0.81508923  0.14593396  0.68476069    -0.05200
C366        C  0.81164528  0.11861212  0.69589623    -0.23600
C367        C  0.81378746  0.11091338  0.74250154     0.12800
C368        C  0.82191644  0.12963470  0.77533727    -0.12700
N369        N  0.82566013  0.19234274  0.70470390     0.64400
H370        H  0.81289850  0.15260098  0.64974634     0.12300
N371        N  0.80865907  0.08397514  0.75735008     0.61100
H372        H  0.82582156  0.12249738  0.80954227     0.08400
O373        O  0.91345196  0.22629409  0.78658520    -0.40400
O374        O  0.92857601  0.18517372  0.78629617    -0.39600
O375        O  0.80737780  0.14438667  0.88311120    -0.39600
O376        O  0.79025837  0.18282541  0.86265035    -0.37300
O377        O  0.78621479  0.07853944  0.77558978    -0.38200
O378        O  0.82817202  0.06802509  0.76291487    -0.34300
O379        O  0.84489042  0.19872784  0.67840343    -0.35700
O380        O  0.80579144  0.20807874  0.70853952    -0.40000
C381        C  0.83979400  0.05397524  0.06119554    -0.13700
C382        C  0.86748416  0.05149971  0.05222745     0.16700
C383        C  0.87971943  0.02601001  0.05623910     0.03000
C384        C  0.86417767  0.00363981  0.06840233    -0.12200
C385        C  0.83637181  0.00588287  0.07750748    -0.03300
C386        C  0.82420027  0.03159935  0.07379822     0.02200
C387        C  0.88302809  0.07598834  0.03983432     0.09000
N388        N  0.90810696  0.02257447  0.05043475     0.65400
H389        H  0.87424290  0.98435613  0.07129973     0.18300
N390        N  0.79622476  0.03561952  0.08324345     0.75900
H391        H  0.83019028  0.07352154  0.05848255     0.09800
C392        C  0.89435780  0.07953281  0.99586395     0.03500
C393        C  0.90672846  0.10388904  0.98442927    -0.05200
C394        C  0.90790888  0.12543220  0.01566490    -0.23600
C395        C  0.89734197  0.12148331  0.06033889     0.12800
C396        C  0.88498898  0.09696322  0.07183118    -0.12700
N397        N  0.89196815  0.05942069  0.96118046     0.64400
H398        H  0.91460282  0.10614117  0.94997279     0.12300
N399        N  0.89856195  0.14207001  0.09437622     0.61100
H400        H  0.87646819  0.09442214  0.10580463     0.08400
O401        O  0.77996776  0.03697576  0.05036390    -0.40400
O402        O  0.78901973  0.04422782  0.12212531    -0.39600
O403        O  0.92318009  0.02634632  0.08436780    -0.39600
O404        O  0.91679070  0.00865314  0.01730032    -0.37300
O405        O  0.91695032  0.14115771  0.12387093    -0.38200
O406        O  0.87809126  0.15655610  0.10186060    -0.34300
O407        O  0.87151475  0.05972366  0.93587908    -0.35700
O408        O  0.91293123  0.04746893  0.94724937    -0.40000
C409        C  0.74974985  0.99683304  0.79052717    -0.13700
C410        C  0.76967574  0.97858281  0.80486695     0.16700
C411        C  0.79073206  0.97186723  0.77459470     0.03000
C412        C  0.79212494  0.98386842  0.73145722    -0.12200
C413        C  0.77296187  0.00300906  0.71722286    -0.03300
C414        C  0.75107580  0.00890894  0.74683887     0.02200
C415        C  0.76956297  0.96794025  0.85236565     0.09000
N416        N  0.81184841  0.95407837  0.78821715     0.65400
H417        H  0.80901925  0.97869939  0.70942038     0.18300
N418        N  0.73074272  0.02779235  0.73414345     0.75900
H419        H  0.73342040  0.00209763  0.81367444     0.09800
C420        C  0.77783522  0.98424129  0.88884444     0.03500
C421        C  0.77942854  0.97358044  0.93295773    -0.05200
C422        C  0.77326230  0.94643235  0.94225894    -0.23600
C423        C  0.76489386  0.92996224  0.90538558     0.12800
C424        C  0.76310929  0.94088500  0.86094288    -0.12700
N425        N  0.78609433  0.01140886  0.88128989     0.64400
H426        H  0.78623471  0.98675261  0.95997293     0.12300
N427        N  0.75825601  0.90225455  0.91193030     0.61100
H428        H  0.75702000  0.92811061  0.83288984     0.08400
O429        O  0.70960313  0.01935545  0.71538865    -0.40400
O430        O  0.73091622  0.05108811  0.75132102    -0.39600
O431        O  0.81281868  0.93057257  0.77195093    -0.39600
O432        O  0.83223729  0.96353431  0.80794475    -0.37300
O433        O  0.73383860  0.89537573  0.91214909    -0.38200
O434        O  0.77601692  0.88462185  0.90402412    -0.34300
O435        O  0.77086572  0.03041576  0.89393040    -0.35700
O436        O  0.81051784  0.01621081  0.87249235    -0.40000
C437        C  0.77409037  0.97589500  0.30813847    -0.13700
C438        C  0.76357253  0.00207888  0.30570967     0.16700
C439        C  0.75510581  0.01205343  0.26290258     0.03000
C440        C  0.75718701  0.99572414  0.22364262    -0.12200
C441        C  0.76853388  0.96983599  0.22596793    -0.03300
C442        C  0.77708451  0.96000099  0.26878720     0.02200
C443        C  0.76304635  0.01849238  0.34838104     0.09000
N444        N  0.74550554  0.03902218  0.25825506     0.65400
H445        H  0.75150390  0.00395011  0.19074806     0.18300
N446        N  0.78970821  0.93423476  0.27268507     0.75900
H447        H  0.78098893  0.96810626  0.34065194     0.09800
C448        C  0.74531793  0.01194344  0.38453277     0.03500
C449        C  0.74882332  0.02334206  0.42787891    -0.05200
C450        C  0.77019954  0.04098042  0.43682697    -0.23600
C451        C  0.78744746  0.04840807  0.40026721     0.12800
C452        C  0.78356123  0.03733621  0.35631932    -0.12700
N453        N  0.72465057  0.99236174  0.37858572     0.64400
H454        H  0.73545967  0.01726766  0.45545340     0.12300
N455        N  0.81075801  0.06443523  0.40817284     0.61100
H456        H  0.79781124  0.04191956  0.32921418     0.08400
O457        O  0.77581933  0.91424151  0.28496112    -0.40400
O458        O  0.81503117  0.93283039  0.27468853    -0.39600
O459        O  0.76146615  0.05698849  0.24422302    -0.39600
O460        O  0.72049047  0.04329306  0.25672258    -0.37300
O461        O  0.81070412  0.08884268  0.39627979    -0.38200
O462        O  0.83287980  0.05292806  0.41635297    -0.34300
O463        O  0.72902879  0.96828037  0.39014393    -0.35700
O464        O  0.70075470  0.00011836  0.37244430    -0.40000
C465        C  0.85324572  0.82255591  0.21246226    -0.13700
C466        C  0.83821814  0.81783065  0.25269412     0.16700
C467        C  0.81176323  0.82862477  0.25529854     0.03000
C468        C  0.80226781  0.84582012  0.22065434    -0.12200
C469        C  0.81786139  0.85121421  0.18152069    -0.03300
C470        C  0.84298344  0.83819260  0.17654400     0.02200
C471        C  0.85206305  0.80554991  0.29340494     0.09000
N472        N  0.79409343  0.82224922  0.29258286     0.65400
H473        H  0.78278066  0.85530805  0.22466203     0.18300
N474        N  0.85954372  0.84250355  0.13702867     0.75900
H475        H  0.87370022  0.81554047  0.20965099     0.09800
C476        C  0.86983836  0.78316973  0.28958428     0.03500
C477        C  0.88618038  0.77582053  0.32659307    -0.05200
C478        C  0.88495633  0.78977330  0.36820223    -0.23600
C479        C  0.86662359  0.81127553  0.37297151     0.12800
C480        C  0.85071159  0.81912386  0.33575858    -0.12700
N481        N  0.87200592  0.76778183  0.24835220     0.64400
H482        H  0.90032027  0.75931324  0.32249320     0.12300
N483        N  0.86619407  0.82727220  0.41364399     0.61100
H484        H  0.83855129  0.83711686  0.33929866     0.08400
O485        O  0.85754482  0.82665588  0.10348529    -0.40400
O486        O  0.88061064  0.85633193  0.14097113    -0.39600
O487        O  0.78795431  0.84035186  0.32115290    -0.39600
O488        O  0.77908035  0.80192715  0.28917322    -0.37300
O489        O  0.85205791  0.82016556  0.44761722    -0.38200
O490        O  0.88183747  0.84710422  0.41710355    -0.34300
O491        O  0.89324870  0.76949186  0.22451398    -0.35700
O492        O  0.85729838  0.74732088  0.24386719    -0.40000
C493        C  0.90278535  0.89802895  0.51483940    -0.13700
C494        C  0.87908905  0.89670734  0.54135899     0.16700
C495        C  0.87023981  0.87112099  0.55652495     0.03000
C496        C  0.88543089  0.84791374  0.54626776    -0.12200
C497        C  0.90905552  0.84932006  0.51958120    -0.03300
C498        C  0.91765384  0.87482292  0.50384948     0.02200
C499        C  0.86376342  0.92218707  0.55106880     0.09000
N500        N  0.84551268  0.86806101  0.58128783     0.65400
H501        H  0.87802357  0.82857735  0.55755604     0.18300
N502        N  0.94138523  0.87765509  0.47630461     0.75900
H503        H  0.90945217  0.91711164  0.50134317     0.09800
C504        C  0.87661995  0.94517778  0.56907687     0.03500
C505        C  0.86224844  0.96922070  0.57530829    -0.05200
C506        C  0.83484102  0.97133945  0.56433595    -0.23600
C507        C  0.82195825  0.94848254  0.54574699     0.12800
C508        C  0.83646170  0.92435533  0.53913729    -0.12700
N509        N  0.90423242  0.94443919  0.58232940     0.64400
H510        H  0.87266276  0.98624138  0.58991649     0.12300
N511        N  0.79457635  0.94963962  0.53133803     0.61100
H512        H  0.82646943  0.90750582  0.52331534     0.08400
O513        O  0.96305413  0.88470168  0.49497694    -0.40400
O514        O  0.93918374  0.87966349  0.43342425    -0.39600
O515        O  0.82515595  0.85929795  0.56054538    -0.39600
O516        O  0.84596153  0.86699985  0.62442994    -0.37300
O517        O  0.78949930  0.95553436  0.49026715    -0.38200
O518        O  0.77660743  0.93860730  0.55560613    -0.34300
O519        O  0.92154139  0.95630849  0.55780423    -0.35700
O520        O  0.90994635  0.93857347  0.62314463    -0.40000
C521        C  0.07401366  0.81341437  0.53915388    -0.13700
C522        C  0.07799660  0.83930015  0.52103820     0.16700
C523        C  0.05871423  0.85011408  0.49112843     0.03000
C524        C  0.03569786  0.83535283  0.48050342    -0.12200
C525        C  0.03166716  0.80935333  0.49808027    -0.03300
C526        C  0.05125642  0.79823704  0.52743657     0.02200
C527        C  0.10291709  0.85425840  0.53199709     0.09000
N528        N  0.06221669  0.87609019  0.47105158     0.65400
H529        H  0.02112617  0.84413942  0.45753135     0.18300
N530        N  0.04815840  0.77190983  0.54638824     0.75900
H531        H  0.08883271  0.80481688  0.56185435     0.09800
C532        C  0.10783313  0.86388154  0.57641828     0.03500
C533        C  0.13191038  0.87715436  0.58581656    -0.05200
C534        C  0.15169988  0.88126657  0.55167669    -0.23600
C535        C  0.14655618  0.87178792  0.50687790     0.12800
C536        C  0.12234237  0.85840076  0.49757192    -0.12700
N537        N  0.08833641  0.86096549  0.61231151     0.64400
H538        H  0.13504023  0.88414141  0.62041540     0.12300
N539        N  0.16535116  0.87566256  0.47021821     0.61100
H540        H  0.11878821  0.85098566  0.46335641     0.08400
O541        O  0.03718840  0.76923343  0.58522825    -0.40400
O542        O  0.06148148  0.75258004  0.52958144    -0.39600
O543        O  0.07211568  0.87784719  0.43123215    -0.39600
O544        O  0.04963649  0.89593741  0.48772959    -0.37300
O545        O  0.18038770  0.85635192  0.45825416    -0.38200
O546        O  0.16170254  0.89489742  0.44273102    -0.34300
O547        O  0.09229758  0.84372548  0.64328191    -0.35700
O548        O  0.07180377  0.87983881  0.61963415    -0.40000
C549        C  0.94373035  0.81673750  0.99034943    -0.13700
C550        C  0.94559065  0.84486073  0.99425834     0.16700
C551        C  0.97114686  0.85698194  0.98955559     0.03000
C552        C  0.99384801  0.84110793  0.98093418    -0.12200
C553        C  0.99201540  0.81303753  0.97595624    -0.03300
C554        C  0.96642844  0.80085208  0.98047150     0.02200
C555        C  0.92109605  0.86084284  0.00636383     0.09000
N556        N  0.97456711  0.88548403  0.99253071     0.65400
H557        H  0.01308286  0.85112309  0.97764265     0.18300
N558        N  0.96282259  0.77255614  0.97445641     0.75900
H559        H  0.92459877  0.80688449  0.99558488     0.09800
C560        C  0.89647084  0.85770963  0.98303878     0.03500
C561        C  0.87346020  0.87160250  0.99807011    -0.05200
C562        C  0.87437722  0.88906783  0.03580521    -0.23600
C563        C  0.89934151  0.89330938  0.05755448     0.12800
C564        C  0.92206342  0.87867355  0.04359666    -0.12700
N565        N  0.89431197  0.84051447  0.94401389     0.64400
H566        H  0.85464509  0.86807369  0.98080542     0.12300
N567        N  0.90234201  0.91301456  0.09286078     0.61100
H568        H  0.94042338  0.88104512  0.06256862     0.08400
O569        O  0.95551807  0.76384978  0.93594871    -0.40400
O570        O  0.95995269  0.75775323  0.00922365    -0.39600
O571        O  0.98592401  0.89523391  0.02725752    -0.39600
O572        O  0.97354602  0.89932034  0.95636090    -0.37300
O573        O  0.90568793  0.90547071  0.13367362    -0.38200
O574        O  0.90887825  0.93666217  0.08176062    -0.34300
O575        O  0.88232689  0.81827645  0.94813183    -0.35700
O576        O  0.89751818  0.85043179  0.90457977    -0.40000
C577        C  0.15780632  0.79617665  0.78351233    -0.13700
C578        C  0.18290388  0.80548696  0.79812850     0.16700
C579        C  0.18922091  0.80300678  0.84519237     0.03000
C580        C  0.16974115  0.79362589  0.87655567    -0.12200
C581        C  0.14385553  0.78627990  0.86214785    -0.03300
C582        C  0.13864152  0.78623312  0.81447610     0.02200
C583        C  0.19912095  0.82235916  0.76559216     0.09000
N584        N  0.21501173  0.81063402  0.86210497     0.65400
H585        H  0.17457777  0.79335097  0.91261275     0.18300
N586        N  0.11338364  0.77773031  0.79661656     0.75900
H587        H  0.15200825  0.79845006  0.74819881     0.09800
C588        C  0.20370714  0.81493739  0.71928633     0.03500
C589        C  0.21266315  0.83414214  0.68740230    -0.05200
C590        C  0.21719193  0.86097873  0.70025601    -0.23600
C591        C  0.21473599  0.86780877  0.74723724     0.12800
C592        C  0.20550451  0.84871618  0.77893646    -0.12700
N593        N  0.19848612  0.78828294  0.70329556     0.64400
H594        H  0.21472692  0.82820651  0.65196226     0.12300
N595        N  0.22021452  0.89436572  0.76347980     0.61100
H596        H  0.20148133  0.85528691  0.81346091     0.08400
O597        O  0.09652807  0.79532025  0.78445644    -0.40400
O598        O  0.11116067  0.75402285  0.78166040    -0.39600
O599        O  0.21698069  0.83156014  0.88632404    -0.39600
O600        O  0.23344341  0.79314974  0.86375789    -0.37300
O601        O  0.20087440  0.91032871  0.77101924    -0.38200
O602        O  0.24282311  0.89922201  0.78094228    -0.34300
O603        O  0.17856032  0.78439789  0.67762870    -0.35700
O604        O  0.21754152  0.77144887  0.70267448    -0.40000
C605        C  0.02127858  0.75467010  0.17872977    -0.13700
C606        C  0.03992860  0.74468501  0.21000004     0.16700
C607        C  0.06631891  0.73888051  0.19459756     0.03000
C608        C  0.07353593  0.74326032  0.14839961    -0.12200
C609        C  0.05476591  0.75328332  0.11677575    -0.03300
C610        C  0.02827840  0.75898558  0.13280413     0.02200
C611        C  0.03137065  0.74302436  0.25889936     0.09000
N612        N  0.08582420  0.72789061  0.22500421     0.65400
H613        H  0.09374181  0.73826974  0.13712074     0.18300
N614        N  0.00798016  0.76926252  0.10317251     0.75900
H615        H  0.00107221  0.75955167  0.19027048     0.09800
C616        C  0.03548553  0.76509751  0.28801362     0.03500
C617        C  0.02241804  0.76631734  0.33050214    -0.05200
C618        C  0.00429106  0.74621816  0.34503138    -0.23600
C619        C  0.00107268  0.72333498  0.31680733     0.12800
C620        C  0.01453099  0.72199185  0.27398565    -0.12700
N621        N  0.05077363  0.78782308  0.27308883     0.64400
H622        H  0.02559324  0.78399691  0.35135651     0.12300
N623        N  0.98287197  0.70232126  0.32918709     0.61100
H624        H  0.01072560  0.70518678  0.25146060     0.08400
O625        O  0.00349754  0.79426792  0.10227228    -0.40400
O626        O  0.99029275  0.75337774  0.08849393    -0.39600
O627        O  0.08989174  0.70281110  0.22507035    -0.39600
O628        O  0.10314056  0.74322962  0.24239799    -0.37300
O629        O  0.95955822  0.70221874  0.31240121    -0.38200
O630        O  0.99203439  0.68102587  0.34678790    -0.34300
O631        O  0.03873617  0.80753160  0.25515132    -0.35700
O632        O  0.07437264  0.79092801  0.28770298    -0.40000
C633        C  0.96480501  0.75216268  0.70295792    -0.13700
C634        C  0.98422445  0.73188656  0.70935935     0.16700
C635        C  0.99077175  0.71465902  0.67278510     0.03000
C636        C  0.98028972  0.71977442  0.62939919    -0.12200
C637        C  0.96238835  0.74126186  0.62203465    -0.03300
C638        C  0.95352102  0.75670988  0.65968925     0.02200
C639        C  0.00126402  0.73290991  0.75064453     0.09000
N640        N  0.00902826  0.69270057  0.67865599     0.65400
H641        H  0.98684527  0.70738760  0.60089567     0.18300
N642        N  0.93504262  0.77849597  0.65391817     0.75900
H643        H  0.95968681  0.76555431  0.73096009     0.09800
C644        C  0.02193398  0.75208767  0.75293862     0.03500
C645        C  0.03552513  0.75616075  0.79398484    -0.05200
C646        C  0.02952129  0.74085011  0.83320977    -0.23600
C647        C  0.01011029  0.72017841  0.82988811     0.12800
C648        C  0.99595999  0.71652772  0.78874030    -0.12700
N649        N  0.02888324  0.76799978  0.71381947     0.64400
H650        H  0.05038194  0.77196785  0.79557140     0.12300
N651        N  0.00302584  0.70414527  0.86867745     0.61100
H652        H  0.98017650  0.70159729  0.78707051     0.08400
O653        O  0.94395172  0.80197515  0.64768105    -0.40400
O654        O  0.91069780  0.77533988  0.66525764    -0.39600
O655        O  0.99983680  0.66992343  0.68960020    -0.39600
O656        O  0.03267530  0.69441972  0.66288014    -0.37300
O657        O  0.98298034  0.71083816  0.89296896    -0.38200
O658        O  0.01226620  0.68053873  0.87170379    -0.34300
O659        O  0.01779043  0.79058327  0.70776699    -0.35700
O660        O  0.04366359  0.75811158  0.68273114    -0.40000
C661        C  0.13041866  0.89807600  0.99501813    -0.13700
C662        C  0.14706148  0.89695012  0.03367769     0.16700
C663        C  0.14792674  0.87265413  0.05889855     0.03000
C664        C  0.13264434  0.85036145  0.04489219    -0.12200
C665        C  0.11599832  0.85143940  0.00612613    -0.03300
C666        C  0.11496853  0.87588503  0.98125028     0.02200
C667        C  0.16143441  0.92208989  0.04802933     0.09000
N668        N  0.16315930  0.87038999  0.09999747     0.65400
H669        H  0.13390966  0.83201483  0.06471964     0.18300
N670        N  0.09770410  0.87903212  0.94276018     0.75900
H671        H  0.12915568  0.91654378  0.97548147     0.09800
C672        C  0.18972774  0.92371573  0.05222276     0.03500
C673        C  0.20189280  0.94828499  0.06370171    -0.05200
C674        C  0.18677091  0.97202112  0.06990990    -0.23600
C675        C  0.15846507  0.97047651  0.06467798     0.12800
C676        C  0.14624801  0.94572366  0.05455430    -0.12700
N677        N  0.20679097  0.90132322  0.04176465     0.64400
H678        H  0.22359727  0.94880921  0.06652926     0.12300
N679        N  0.14170076  0.99382940  0.06802291     0.61100
H680        H  0.12458270  0.94508657  0.05084989     0.08400
O681        O  0.10767540  0.87814538  0.90290392    -0.40400
O682        O  0.07467491  0.88929803  0.94867274    -0.39600
O683        O  0.15250936  0.87784361  0.13728474    -0.39600
O684        O  0.18269047  0.85411136  0.10105635    -0.37300
O685        O  0.13554078  0.00631603  0.03194454    -0.38200
O686        O  0.12793577  0.99765884  0.10395611    -0.34300
O687        O  0.21338995  0.89723801  0.00052193    -0.35700
O688        O  0.22149467  0.89182413  0.07290331    -0.40000
C689        C  0.05289671  0.12149379  0.00766409    -0.13700
C690        C  0.07527926  0.13700413  0.01958987     0.16700
C691        C  0.07334217  0.16528881  0.01729023     0.03000
C692        C  0.04943849  0.17748610  0.00289772    -0.12200
C693        C  0.02698133  0.16209095  0.99038589    -0.03300
C694        C  0.02890091  0.13363449  0.99321074     0.02200
C695        C  0.10099416  0.12325321  0.03084483     0.09000
N696        N  0.09532917  0.18204077  0.03016206     0.65400
H697        H  0.04854742  0.19923098  0.00166603     0.18300
N698        N  0.00717927  0.11656797  0.98015485     0.75900
H699        H  0.05428292  0.09976514  0.00830983     0.09800
C700        C  0.10292011  0.10476621  0.06724775     0.03500
C701        C  0.12732718  0.09160214  0.07564593    -0.05200
C702        C  0.15042787  0.09652412  0.04864456    -0.23600
C703        C  0.14824199  0.11479412  0.01166582     0.12800
C704        C  0.12366523  0.12772748  0.00301851    -0.12700
N705        N  0.08063966  0.09993757  0.09735616     0.64400
H706        H  0.12821160  0.07777746  0.10422129     0.12300
N707        N  0.17059619  0.12082173  0.98254477     0.61100
H708        H  0.12228680  0.14133367  0.97421463     0.08400
O709        O  0.00740298  0.10615702  0.94074124    -0.40400
O710        O  0.99212440  0.10669608  0.01081246    -0.39600
O711        O  0.10941959  0.19305307  0.99931892    -0.39600
O712        O  0.09609847  0.19118268  0.07043170    -0.37300
O713        O  0.17060129  0.11174711  0.94223749    -0.38200
O714        O  0.18489980  0.14105191  0.99152453    -0.34300
O715        O  0.06742508  0.07843727  0.09333481    -0.35700
O716        O  0.07878337  0.11318650  0.13411040    -0.40000
C717        C  0.25002161  0.04596284  0.85859283    -0.13700
C718        C  0.25750796  0.01915616  0.84970678     0.16700
C719        C  0.26457328  0.00246197  0.88661385     0.03000
C720        C  0.26297871  0.01229442  0.93129193    -0.12200
C721        C  0.25374435  0.03855882  0.94085030    -0.03300
C722        C  0.24797997  0.05575450  0.90365393     0.02200
C723        C  0.25563846  0.00819639  0.80251365     0.09000
N724        N  0.27141288  0.97478853  0.87978422     0.65400
H725        H  0.26801721  0.99867087  0.95887090     0.18300
N726        N  0.23810153  0.08241986  0.91065079     0.75900
H727        H  0.24484048  0.05911125  0.83045410     0.09800
C728        C  0.23097126  0.00863293  0.77929327     0.03500
C729        C  0.22879652  0.99608817  0.73689140    -0.05200
C730        C  0.25065071  0.98233804  0.71648270    -0.23600
C731        C  0.27585759  0.98318480  0.73844349     0.12800
C732        C  0.27810531  0.99598570  0.78129352    -0.12700
N733        N  0.20729589  0.02008943  0.79962856     0.64400
H734        H  0.20931575  0.99644669  0.72061300     0.12300
N735        N  0.29911182  0.97065680  0.71874915     0.61100
H736        H  0.29731037  0.99596270  0.79843762     0.08400
O737        O  0.25448458  0.10176266  0.91002093    -0.40400
O738        O  0.21353128  0.08708706  0.90368876    -0.39600
O739        O  0.29550602  0.96731829  0.88470133    -0.39600
O740        O  0.25296586  0.95739248  0.88018147    -0.37300
O741        O  0.31607210  0.98502119  0.69769874    -0.38200
O742        O  0.30598511  0.94755128  0.73233369    -0.34300
O743        O  0.19892451  0.04261955  0.78566802    -0.35700
O744        O  0.19157824  0.00514502  0.82224567    -0.40000
C745        C  0.22908935  0.96577208  0.37237293    -0.13700
C746        C  0.25205387  0.95827411  0.34714354     0.16700
C747        C  0.27152842  0.94170126  0.36804707     0.03000
C748        C  0.26770737  0.93291038  0.41346812    -0.12200
C749        C  0.24502733  0.94106608  0.43898051    -0.03300
C750        C  0.22555407  0.95759285  0.41788222     0.02200
C751        C  0.25502009  0.96898259  0.29975441     0.09000
N752        N  0.29546751  0.93397768  0.34402949     0.65400
H753        H  0.28306011  0.92074078  0.42944330     0.18300
N754        N  0.20205048  0.96640562  0.44223222     0.75900
H755        H  0.21409045  0.97864884  0.35696071     0.09800
C756        C  0.23617055  0.96216144  0.26600240     0.03500
C757        C  0.23506665  0.97681897  0.22527759    -0.05200
C758        C  0.25236125  0.99862295  0.21689649    -0.23600
C759        C  0.27253110  0.00440704  0.24919263     0.12800
C760        C  0.27367016  0.98957798  0.29038066    -0.12700
N761        N  0.21712442  0.94107809  0.27335376     0.64400
H762        H  0.21977576  0.97167063  0.20060532     0.12300
N763        N  0.29045448  0.02651362  0.24270487     0.61100
H764        H  0.28801184  0.99528711  0.31625692     0.08400
O765        O  0.18029547  0.95377333  0.43716667    -0.40400
O766        O  0.20135634  0.98993068  0.45845937    -0.39600
O767        O  0.31692009  0.94681116  0.35095901    -0.39600
O768        O  0.29671117  0.91104929  0.32557592    -0.37300
O769        O  0.28450406  0.04908546  0.25985190    -0.38200
O770        O  0.31444107  0.02193437  0.23044728    -0.34300
O771        O  0.19321009  0.94702975  0.28426920    -0.35700
O772        O  0.22222794  0.91790617  0.25783794    -0.40000
C773        C  0.92166607  0.11231755  0.55668374    -0.13700
C774        C  0.91903264  0.13342525  0.52508761     0.16700
C775        C  0.89418908  0.13655919  0.50237067     0.03000
C776        C  0.87266661  0.11917161  0.51222967    -0.12200
C777        C  0.87500793  0.09854686  0.54495086    -0.03300
C778        C  0.90007452  0.09512071  0.56698344     0.02200
C779        C  0.94315316  0.15012962  0.51339703     0.09000
N780        N  0.89002435  0.15795527  0.47047588     0.65400
H781        H  0.85366091  0.12254665  0.49525205     0.18300
N782        N  0.90431769  0.07389715  0.59914880     0.75900
H783        H  0.94084026  0.10874917  0.57292993     0.09800
C784        C  0.95838924  0.16360203  0.54709357     0.03500
C785        C  0.98235129  0.17689955  0.53488003    -0.05200
C786        C  0.99206600  0.17660511  0.48958929    -0.23600
C787        C  0.97654866  0.16350619  0.45582712     0.12800
C788        C  0.95247222  0.15056861  0.46794957    -0.12700
N789        N  0.95010174  0.16370864  0.59405799     0.64400
H790        H  0.99387890  0.18671959  0.56133067     0.12300
N791        N  0.98489726  0.16293206  0.40891165     0.61100
H792        H  0.94149659  0.13993725  0.44175652     0.08400
O793        O  0.91454933  0.05203144  0.58544319    -0.40400
O794        O  0.90423379  0.07922496  0.64139645    -0.39600
O795        O  0.88943417  0.15270230  0.42822149    -0.39600
O796        O  0.88013519  0.17987630  0.48463281    -0.37300
O797        O  0.99539694  0.14170311  0.39306732    -0.38200
O798        O  0.97541179  0.18011810  0.38157020    -0.34300
O799        O  0.96181676  0.14829049  0.62191199    -0.35700
O800        O  0.93680221  0.18348929  0.60928825    -0.40000
C801        C  0.05585412  0.21100539  0.69441633    -0.13700
C802        C  0.03805314  0.23218163  0.70461649     0.16700
C803        C  0.03563693  0.25358030  0.67337489     0.03000
C804        C  0.04894116  0.25228115  0.63105657    -0.12200
C805        C  0.06506416  0.22998275  0.61899440    -0.03300
C806        C  0.06942856  0.20978546  0.65222288     0.02200
C807        C  0.02177558  0.23099322  0.74737567     0.09000
N808        N  0.01873522  0.27620880  0.68299798     0.65400
H809        H  0.04582380  0.26850140  0.60697790     0.18300
N810        N  0.08761330  0.18799488  0.64428780     0.75900
H811        H  0.05895515  0.19511753  0.71912487     0.09800
C812        C  0.00500469  0.20878035  0.75637457     0.03500
C813        C  0.99165919  0.20676019  0.79834575    -0.05200
C814        C  0.99431552  0.22657679  0.83229024    -0.23600
C815        C  0.01045497  0.24929491  0.82291202     0.12800
C816        C  0.02406622  0.25129524  0.78061927    -0.12700
N817        N  0.00138047  0.18787242  0.72337271     0.64400
H818        H  0.97959025  0.18909230  0.80474725     0.12300
N819        N  0.01498427  0.26939913  0.85687474     0.61100
H820        H  0.03727268  0.26817623  0.77450235     0.08400
O821        O  0.07843009  0.16545019  0.63225559    -0.40400
O822        O  0.11066998  0.18913148  0.66189723    -0.39600
O823        O  0.02932194  0.29800602  0.69559714    -0.39600
O824        O  0.99495072  0.27642699  0.66824694    -0.37300
O825        O  0.03593636  0.26806733  0.88088978    -0.38200
O826        O  0.00219005  0.29132821  0.85476954    -0.34300
O827        O  0.01313578  0.16557728  0.72899221    -0.35700
O828        O  0.98164194  0.18918089  0.69657848    -0.40000
C829        C  0.96260577  0.22866189  0.19897065    -0.13700
C830        C  0.99073339  0.22884884  0.20427574     0.16700
C831        C  0.00724912  0.22827384  0.16495359     0.03000
C832        C  0.99577469  0.22700820  0.12177311    -0.12200
C833        C  0.96763844  0.22605985  0.11560384    -0.03300
C834        C  0.95094642  0.22721288  0.15506973     0.02200
C835        C  0.00310018  0.22630203  0.25025165     0.09000
N836        N  0.03597116  0.22847517  0.16816471     0.65400
H837        H  0.00948976  0.22638198  0.09280612     0.18300
N838        N  0.92234510  0.22614340  0.15161278     0.75900
H839        H  0.94969136  0.22858679  0.22897674     0.09800
C840        C  0.00068797  0.24626400  0.28436024     0.03500
C841        C  0.01521792  0.24378106  0.32527113    -0.05200
C842        C  0.03200850  0.22141646  0.33313912    -0.23600
C843        C  0.03297610  0.20070243  0.29980482     0.12800
C844        C  0.01876781  0.20344608  0.25903606    -0.12700
N845        N  0.98385509  0.26926366  0.27788079     0.64400
H846        H  0.01343651  0.25948622  0.35081283     0.12300
N847        N  0.04708932  0.17602143  0.30751274     0.61100
H848        H  0.01990254  0.18743428  0.23393165     0.08400
O849        O  0.90884796  0.24756478  0.15579433    -0.40400
O850        O  0.91063590  0.20377693  0.15584591    -0.39600
O851        O  0.04895791  0.20700174  0.16088337    -0.39600
O852        O  0.04821303  0.25066568  0.16663524    -0.37300
O853        O  0.03449570  0.15626053  0.32418217    -0.38200
O854        O  0.06929760  0.17196817  0.28740172    -0.34300
O855        O  0.96057170  0.26951804  0.29547316    -0.35700
O856        O  0.99418487  0.29106432  0.26441858    -0.40000
C857        C  0.19905023  0.13218847  0.27553778    -0.13700
C858        C  0.19316100  0.15844746  0.26128832     0.16700
C859        C  0.19898148  0.16596449  0.21577023     0.03000
C860        C  0.20847943  0.14662618  0.18450198    -0.12200
C861        C  0.21251426  0.11969442  0.19785606    -0.03300
C862        C  0.20880329  0.11290425  0.24467605     0.02200
C863        C  0.17853603  0.17612989  0.29407061     0.09000
N864        N  0.19576108  0.19313474  0.20079994     0.65400
H865        H  0.21183839  0.15261509  0.14934725     0.18300
N866        N  0.21408025  0.08643056  0.26165005     0.75900
H867        H  0.19501695  0.12628383  0.31058037     0.09800
C868        C  0.15072864  0.18092066  0.28900208     0.03500
C869        C  0.13550747  0.19008411  0.32636197    -0.05200
C870        C  0.14730165  0.19430904  0.36919839    -0.23600
C871        C  0.17544908  0.19206349  0.37323369     0.12800
C872        C  0.19084784  0.18291209  0.33569080    -0.12700
N873        N  0.13694068  0.17350032  0.24816015     0.64400
H874        H  0.11399166  0.19199243  0.32282750     0.12300
N875        N  0.18835003  0.19624885  0.41613248     0.61100
H876        H  0.21209978  0.17910738  0.34010497     0.08400
O877        O  0.19479673  0.07019880  0.26667213    -0.40400
O878        O  0.23582547  0.08198561  0.28235255    -0.39600
O879        O  0.21538281  0.20903416  0.20430356    -0.39600
O880        O  0.17713863  0.19879769  0.17331081    -0.37300
O881        O  0.19198242  0.17649884  0.44255621    -0.38200
O882        O  0.20151775  0.21758473  0.42234914    -0.34300
O883        O  0.12752741  0.15003071  0.24483836    -0.35700
O884        O  0.12785659  0.19178309  0.22253841    -0.40000
C885        C  0.13751155  0.02960345  0.56500239    -0.13700
C886        C  0.15081403  0.05167974  0.54547893     0.16700
C887        C  0.17883889  0.05001230  0.53736192     0.03000
C888        C  0.19302405  0.02682995  0.54968666    -0.12200
C889        C  0.17988304  0.00476720  0.56979758    -0.03300
C890        C  0.15167439  0.00623139  0.57697905     0.02200
C891        C  0.13588989  0.07722573  0.53823907     0.09000
N892        N  0.19331501  0.07168017  0.51648127     0.65400
H893        H  0.21445018  0.02613611  0.54323639     0.18300
N894        N  0.13714815  0.98489300  0.59859947     0.75900
H895        H  0.11627768  0.03086055  0.57274209     0.09800
C896        C  0.11230800  0.07882544  0.51171737     0.03500
C897        C  0.10030099  0.10390978  0.50353813    -0.05200
C898        C  0.11145678  0.12760117  0.52132733    -0.23600
C899        C  0.13373362  0.12559230  0.55092129     0.12800
C900        C  0.14547711  0.10055740  0.55935757    -0.12700
N901        N  0.10094845  0.05547769  0.49103039     0.64400
H902        H  0.08310326  0.10492097  0.48119155     0.12300
N903        N  0.14464254  0.14860958  0.57332669     0.61100
H904        H  0.16245878  0.09941944  0.58211659     0.08400
O905        O  0.13326545  0.98567843  0.64133753    -0.40400
O906        O  0.12279463  0.96963236  0.57448288    -0.39600
O907        O  0.20856687  0.08597412  0.54072122    -0.39600
O908        O  0.19614163  0.07206022  0.47351201    -0.37300
O909        O  0.14006724  0.15161726  0.61554295    -0.38200
O910        O  0.16459077  0.16041374  0.55550286    -0.34300
O911        O  0.08012969  0.04516093  0.50867455    -0.35700
O912        O  0.10707764  0.04987311  0.45011275    -0.40000
C913        C  0.17280637  0.60239475  0.01758531    -0.13700
C914        C  0.16713840  0.62512735  0.04440242     0.16700
C915        C  0.18125382  0.62880754  0.08555207     0.03000
C916        C  0.20181867  0.61083251  0.09768358    -0.12200
C917        C  0.20869027  0.58886721  0.06959503    -0.03300
C918        C  0.19322624  0.58420341  0.02986216     0.02200
C919        C  0.14827575  0.64593166  0.02681374     0.09000
N920        N  0.17620471  0.65168838  0.11393042     0.65400
H921        H  0.21340834  0.61487014  0.12814385     0.18300
N922        N  0.19933779  0.56253714  0.99937596     0.75900
H923        H  0.16207364  0.59936269  0.98589535     0.09800
C924        C  0.15673271  0.66427084  0.99296366     0.03500
C925        C  0.13911586  0.68424088  0.97748967    -0.05200
C926        C  0.11287106  0.68695467  0.99556250    -0.23600
C927        C  0.10398082  0.66771966  0.02815019     0.12800
C928        C  0.12172830  0.64747509  0.04346481    -0.12700
N929        N  0.18374029  0.66389099  0.97575524     0.64400
H930        H  0.14659052  0.69855639  0.95253590     0.12300
N931        N  0.07759944  0.66909014  0.04778884     0.61100
H932        H  0.11493136  0.63325135  0.06909935     0.08400
O933        O  0.21287495  0.56731956  0.96355774    -0.40400
O934        O  0.18494765  0.54168489  0.00096953    -0.39600
O935        O  0.16265351  0.64881302  0.15032565    -0.39600
O936        O  0.19041771  0.67248114  0.10874742    -0.37300
O937        O  0.05941230  0.65410946  0.03210813    -0.38200
O938        O  0.07442652  0.67958410  0.08681543    -0.34300
O939        O  0.18837525  0.65493315  0.93603381    -0.35700
O940        O  0.20134432  0.67798748  0.99524416    -0.40000
C941        C  0.35146164  0.86205317  0.57547117    -0.13700
C942        C  0.36133585  0.86550311  0.53057033     0.16700
C943        C  0.34930398  0.88562808  0.50302473     0.03000
C944        C  0.32786114  0.90133643  0.52037421    -0.12200
C945        C  0.31693522  0.89663176  0.56419116    -0.03300
C946        C  0.32926458  0.87692454  0.59202296     0.02200
C947        C  0.38111655  0.84520117  0.51193275     0.09000
N948        N  0.35742792  0.88946053  0.45642433     0.65400
H949        H  0.31836009  0.91578928  0.49806565     0.18300
N950        N  0.31881471  0.87080642  0.63653895     0.75900
H951        H  0.35975415  0.84639200  0.59678269     0.09800
C952        C  0.40582729  0.83949358  0.53375136     0.03500
C953        C  0.42110787  0.81669467  0.52105775    -0.05200
C954        C  0.41230660  0.79894603  0.48685201    -0.23600
C955        C  0.38856943  0.80576700  0.46282039     0.12800
C956        C  0.37327366  0.82847549  0.47565898    -0.12700
N957        N  0.41549568  0.85625713  0.56973093     0.64400
H958        H  0.43919514  0.81211479  0.53988390     0.12300
N959        N  0.37936648  0.78970594  0.42553944     0.61100
H960        H  0.35439412  0.83212593  0.45869734     0.08400
O961        O  0.33048159  0.88013845  0.67126857    -0.40400
O962        O  0.30304850  0.85112505  0.64130596    -0.39600
O963        O  0.34302324  0.87987365  0.42503737    -0.39600
O964        O  0.37360968  0.90818543  0.44685216    -0.37300
O965        O  0.36016146  0.77355724  0.43202778    -0.38200
O966        O  0.38539637  0.79660114  0.38515446    -0.34300
O967        O  0.41405389  0.84799140  0.61053502    -0.35700
O968        O  0.43150971  0.87509799  0.55995410    -0.40000
C969        C  0.37546193  0.68426830  0.28094789    -0.13700
C970        C  0.35150217  0.67144027  0.29388043     0.16700
C971        C  0.34396034  0.67140970  0.34065331     0.03000
C972        C  0.36095110  0.68268906  0.37354153    -0.12200
C973        C  0.38605191  0.69351143  0.36118671    -0.03300
C974        C  0.39279623  0.69508007  0.31388898     0.02200
C975        C  0.33800791  0.65349654  0.26027106     0.09000
N976        N  0.31988983  0.65839681  0.35583193     0.65400
H977        H  0.35520255  0.68119686  0.40924308     0.18300
N978        N  0.41754674  0.70664044  0.29838740     0.75900
H979        H  0.38182193  0.68409395  0.24545769     0.09800
C980        C  0.32745228  0.66258637  0.21820141     0.03500
C981        C  0.31688753  0.64401320  0.18671047    -0.05200
C982        C  0.31782048  0.61616445  0.19522051    -0.23600
C983        C  0.32917766  0.60723307  0.23711852     0.12800
C984        C  0.33863457  0.62582801  0.26895386    -0.12700
N985        N  0.32796314  0.69044284  0.20622400     0.64400
H986        H  0.30882242  0.65140122  0.15478892     0.12300
N987        N  0.33343980  0.57932699  0.24675481     0.61100
H988        H  0.34799915  0.61839494  0.29980767     0.08400
O989        O  0.41692417  0.72930358  0.27897328    -0.40400
O990        O  0.43765622  0.69150327  0.29180279    -0.39600
O991        O  0.32150817  0.63560967  0.37472453    -0.39600
O992        O  0.29877609  0.67222728  0.36129317    -0.37300
O993        O  0.35559000  0.56856948  0.23560337    -0.38200
O994        O  0.31832046  0.56760601  0.27533665    -0.34300
O995        O  0.34613636  0.69885019  0.17941692    -0.35700
O996        O  0.30704126  0.70448892  0.21222613    -0.40000
C997        C  0.15278541  0.32435133  0.47640126    -0.13700
C998        C  0.14260975  0.34135001  0.51083775     0.16700
C999        C  0.11582319  0.33767853  0.52604573     0.03000
C1000       C  0.10058081  0.31594971  0.50944184    -0.12200
C1001       C  0.11155277  0.29771325  0.47754343    -0.03300
C1002       C  0.13755953  0.30272521  0.45976721     0.02200
C1003       C  0.16122115  0.36124032  0.53212334     0.09000
N1004       N  0.10420120  0.35501554  0.55985552     0.65400
H1005       H  0.08090371  0.31214033  0.52417112     0.18300
N1006       N  0.14934535  0.28519621  0.42636903     0.75900
H1007       H  0.17313511  0.32714040  0.46385663     0.09800
C1008       C  0.17740297  0.35389406  0.56955355     0.03500
C1009       C  0.19843886  0.37071142  0.58366016    -0.05200
C1010       C  0.20423368  0.39504167  0.56092634    -0.23600
C1011       C  0.18707489  0.40302816  0.52477327     0.12800
C1012       C  0.16588401  0.38612843  0.51077489    -0.12700
N1013       N  0.17411769  0.32838482  0.59144900     0.64400
H1014       H  0.21123395  0.36393463  0.61115680     0.12300
N1015       N  0.19230279  0.42684872  0.49888556     0.61100
H1016       H  0.15393991  0.39182266  0.48152739     0.08400
O1017       O  0.16624239  0.26772249  0.43879876    -0.40400
O1018       O  0.14782720  0.29131934  0.38453331    -0.39600
O1019       O  0.08878045  0.37379134  0.54731216    -0.39600
O1020       O  0.10390283  0.34768153  0.60121792    -0.37300
O1021       O  0.20398222  0.42481729  0.46051804    -0.38200
O1022       O  0.17920877  0.44799079  0.50804413    -0.34300
O1023       O  0.18877400  0.30886857  0.57908090    -0.35700
O1024       O  0.16162656  0.32712501  0.62917751    -0.40000
C1025       C  0.38346304  0.60305085  0.56864939    -0.13700
C1026       C  0.38199451  0.58221837  0.53620789     0.16700
C1027       C  0.39396478  0.58632364  0.49277893     0.03000
C1028       C  0.40718447  0.61059652  0.48292923    -0.12200
C1029       C  0.40815404  0.63186326  0.51479387    -0.03300
C1030       C  0.39602607  0.62771956  0.55836851     0.02200
C1031       C  0.36605371  0.55750907  0.54746123     0.09000
N1032       N  0.39092758  0.56717948  0.45670525     0.65400
H1033       H  0.41566529  0.61315919  0.44895976     0.18300
N1034       N  0.39536803  0.64842097  0.59228868     0.75900
H1035       H  0.37414030  0.60040050  0.60199101     0.09800
C1036       C  0.37742048  0.53140319  0.54747236     0.03500
C1037       C  0.36147711  0.50905603  0.55883174    -0.05200
C1038       C  0.33421824  0.51185062  0.57153328    -0.23600
C1039       C  0.32299370  0.53809011  0.57224329     0.12800
C1040       C  0.33882828  0.56040161  0.55996085    -0.12700
N1041       N  0.40548823  0.52717726  0.53913369     0.64400
H1042       H  0.37083332  0.48935455  0.55857675     0.12300
N1043       N  0.29597014  0.54279622  0.58729984     0.61100
H1044       H  0.32982489  0.58026990  0.56076501     0.08400
O1045       O  0.41140842  0.64705377  0.62544516    -0.40400
O1046       O  0.37456883  0.66291326  0.59608631    -0.39600
O1047       O  0.36960442  0.56759156  0.43355646    -0.39600
O1048       O  0.41164510  0.55609828  0.43988261    -0.37300
O1049       O  0.29164422  0.54887678  0.62866594    -0.38200
O1050       O  0.27800502  0.54747477  0.55806114    -0.34300
O1051       O  0.42147187  0.52901787  0.57231819    -0.35700
O1052       O  0.41270947  0.51387591  0.50431177    -0.40000
C1053       C  0.28022652  0.48146941  0.37786917    -0.13700
C1054       C  0.26409518  0.46638948  0.34848943     0.16700
C1055       C  0.25404088  0.44132254  0.36362267     0.03000
C1056       C  0.25951932  0.43235516  0.40824710    -0.12200
C1057       C  0.27447318  0.44827203  0.43845950    -0.03300
C1058       C  0.28534408  0.47286552  0.42238033     0.02200
C1059       C  0.26101690  0.47638516  0.30098067     0.09000
N1060       N  0.23734926  0.42527105  0.33499115     0.65400
H1061       H  0.25113104  0.41346179  0.41981673     0.18300
N1062       N  0.30226300  0.48915691  0.45035475     0.75900
H1063       H  0.28932213  0.49997287  0.36592858     0.09800
C1064       C  0.25057101  0.50240506  0.29209080     0.03500
C1065       C  0.25426671  0.51416452  0.24894742    -0.05200
C1066       C  0.26878901  0.50068782  0.21479228    -0.23600
C1067       C  0.27783400  0.47419079  0.22254530     0.12800
C1068       C  0.27377076  0.46216534  0.26538154    -0.12700
N1069       N  0.23773384  0.51788214  0.32730633     0.64400
H1070       H  0.24735106  0.53458701  0.24315503     0.12300
N1071       N  0.29180493  0.45961789  0.18742922     0.61100
H1072       H  0.28218624  0.44237701  0.27174598     0.08400
O1073       O  0.29263206  0.51001229  0.46902194    -0.40400
O1074       O  0.32746871  0.48649631  0.44712848    -0.39600
O1075       O  0.24694752  0.40415532  0.31717100    -0.39600
O1076       O  0.21213961  0.42812224  0.33758999    -0.37300
O1077       O  0.27887366  0.44992900  0.15433898    -0.38200
O1078       O  0.31719611  0.45915849  0.18663352    -0.34300
O1079       O  0.25098735  0.53593171  0.34739430    -0.35700
O1080       O  0.21237029  0.51879095  0.32890178    -0.40000
C1081       C  0.24656007  0.51323796  0.76886156    -0.13700
C1082       C  0.26208095  0.50397910  0.80566083     0.16700
C1083       C  0.27748760  0.48028985  0.80023668     0.03000
C1084       C  0.27795613  0.46692791  0.75830616    -0.12200
C1085       C  0.26341571  0.47659019  0.72076997    -0.03300
C1086       C  0.24700241  0.49963656  0.72650652     0.02200
C1087       C  0.26063440  0.51738949  0.85099231     0.09000
N1088       N  0.29376324  0.47010709  0.83652081     0.65400
H1089       H  0.29082337  0.44940823  0.75445195     0.18300
N1090       N  0.23156705  0.51009271  0.68949934     0.75900
H1091       H  0.23411128  0.53099856  0.77303752     0.09800
C1092       C  0.27179787  0.54301116  0.85941974     0.03500
C1093       C  0.27443944  0.55227524  0.90469528    -0.05200
C1094       C  0.26624903  0.53617467  0.94168805    -0.23600
C1095       C  0.25275168  0.51162316  0.93254601     0.12800
C1096       C  0.25007456  0.50264946  0.88762112    -0.12700
N1097       N  0.28209674  0.55908313  0.82280535     0.64400
H1098       H  0.28436674  0.57126483  0.91094838     0.12300
N1099       N  0.24215319  0.49504508  0.96844970     0.61100
H1100       H  0.24072772  0.48333682  0.88142217     0.08400
O1101       O  0.23996287  0.53049533  0.66807964    -0.40400
O1102       O  0.20716385  0.50349496  0.68619670    -0.39600
O1103       O  0.28626195  0.44937436  0.85801739    -0.39600
O1104       O  0.31792194  0.47761992  0.83937512    -0.37300
O1105       O  0.21730535  0.49612036  0.97749426    -0.38200
O1106       O  0.25542710  0.47470927  0.98112209    -0.34300
O1107       O  0.26820438  0.57853997  0.80827592    -0.35700
O1108       O  0.30689383  0.55810300  0.81329544    -0.40000
C1109       C  0.37589459  0.15323514  0.98487398    -0.13700
C1110       C  0.38081842  0.14320141  0.02899953     0.16700
C1111       C  0.40335771  0.15298839  0.05295735     0.03000
C1112       C  0.41939262  0.17347545  0.03374408    -0.12200
C1113       C  0.41338861  0.18475147  0.99085668    -0.03300
C1114       C  0.39182174  0.17380006  0.96578906     0.02200
C1115       C  0.36117945  0.12368529  0.04938106     0.09000
N1116       N  0.41032483  0.14246318  0.09680986     0.65400
H1117       H  0.43570196  0.18164779  0.05370476     0.18300
N1118       N  0.38585469  0.18324864  0.92078092     0.75900
H1119       H  0.35903741  0.14560693  0.96562082     0.09800
C1120       C  0.34194051  0.13200572  0.08228938     0.03500
C1121       C  0.32040741  0.11509103  0.09411286    -0.05200
C1122       C  0.31705539  0.08969058  0.07360528    -0.23600
C1123       C  0.33749310  0.08049942  0.04319188     0.12800
C1124       C  0.35908337  0.09758781  0.03111767    -0.12700
N1125       N  0.34241497  0.15854509  0.10106843     0.64400
H1126       H  0.30527169  0.12267912  0.11770602     0.12300
N1127       N  0.33593800  0.05464867  0.02200795     0.61100
H1128       H  0.37367313  0.09085847  0.00583951     0.08400
O1129       O  0.36546946  0.19798433  0.91471516    -0.40400
O1130       O  0.39675870  0.17181367  0.88675849    -0.39600
O1131       O  0.42877631  0.12503641  0.09920258    -0.39600
O1132       O  0.40406000  0.15562721  0.13227038    -0.37300
O1133       O  0.34931519  0.03536541  0.03846738    -0.38200
O1134       O  0.32704803  0.05280116  0.98178938    -0.34300
O1135       O  0.32975610  0.17707592  0.08092914    -0.35700
O1136       O  0.34836659  0.16154216  0.14266259    -0.40000
C1137       C  0.36934651  0.30883369  0.78275126    -0.13700
C1138       C  0.34252496  0.31249322  0.79652550     0.16700
C1139       C  0.33449480  0.30321161  0.84026745     0.03000
C1140       C  0.35369729  0.29232399  0.87029878    -0.12200
C1141       C  0.38101866  0.29021267  0.85757552    -0.03300
C1142       C  0.38848979  0.29782294  0.81229383     0.02200
C1143       C  0.32465668  0.32794214  0.76509613     0.09000
N1144       N  0.30695231  0.30407025  0.85456692     0.65400
H1145       H  0.34723017  0.28616057  0.90412614     0.18300
N1146       N  0.41564183  0.29586844  0.79595828     0.75900
H1147       H  0.37579719  0.31562634  0.74922041     0.09800
C1148       C  0.31701051  0.35466427  0.77512007     0.03500
C1149       C  0.30715217  0.37136704  0.74034002    -0.05200
C1150       C  0.30532771  0.36248315  0.69459393    -0.23600
C1151       C  0.31078679  0.33498585  0.68548380     0.12800
C1152       C  0.32035931  0.31811917  0.72059881    -0.12700
N1153       N  0.32203822  0.36629880  0.81896333     0.64400
H1154       H  0.30278813  0.39211163  0.74890486     0.12300
N1155       N  0.30839980  0.32408079  0.64046923     0.61100
H1156       H  0.32617829  0.29768046  0.71231296     0.08400
O1157       O  0.42219240  0.27657037  0.77003832    -0.40400
O1158       O  0.43051326  0.31638845  0.79740777    -0.39600
O1159       O  0.29228966  0.28393592  0.84670218    -0.39600
O1160       O  0.29996088  0.32028901  0.88572618    -0.37300
O1161       O  0.32910275  0.32228475  0.61531363    -0.38200
O1162       O  0.28794416  0.31026602  0.63088193    -0.34300
O1163       O  0.34424068  0.37785238  0.82562207    -0.35700
O1164       O  0.30235277  0.37176456  0.84494280    -0.40000
C1165       C  0.38382366  0.37841753  0.06578677    -0.13700
C1166       C  0.37372140  0.39522796  0.03143868     0.16700
C1167       C  0.37800575  0.38865210  0.98521806     0.03000
C1168       C  0.39233169  0.36543155  0.97383756    -0.12200
C1169       C  0.40252213  0.34829831  0.00794285    -0.03300
C1170       C  0.39817625  0.35498657  0.05446289     0.02200
C1171       C  0.36054577  0.42067298  0.04413515     0.09000
N1172       N  0.36788901  0.40537086  0.94941554     0.65400
H1173       H  0.39509552  0.36064128  0.93791755     0.18300
N1174       N  0.40900206  0.33893111  0.09050426     0.75900
H1175       H  0.38091970  0.38375952  0.10144935     0.09800
C1176       C  0.33274252  0.42211431  0.05256440     0.03500
C1177       C  0.32084696  0.44685872  0.06294132    -0.05200
C1178       C  0.33638671  0.47037117  0.06661498    -0.23600
C1179       C  0.36456980  0.46861084  0.05912823     0.12800
C1180       C  0.37625938  0.44387596  0.04743125    -0.12700
N1181       N  0.31635779  0.39856442  0.05166410     0.64400
H1182       H  0.29934527  0.44746680  0.06858447     0.12300
N1183       N  0.38179506  0.49139468  0.06398708     0.61100
H1184       H  0.39773410  0.44269594  0.04134002     0.08400
O1185       O  0.39379698  0.32285673  0.11182066    -0.40400
O1186       O  0.43125154  0.34539576  0.10778821    -0.39600
O1187       O  0.38360631  0.42141217  0.92913191    -0.39600
O1188       O  0.34555677  0.39979606  0.93156685    -0.37300
O1189       O  0.39393934  0.49486676  0.10128872    -0.38200
O1190       O  0.38988365  0.50364497  0.02863354    -0.34300
O1191       O  0.31036414  0.38711150  0.08893358    -0.35700
O1192       O  0.30271563  0.39356020  0.01646330    -0.40000
C1193       C  0.85163963  0.35687431  0.08073265    -0.13700
C1194       C  0.86239369  0.35952448  0.03617096     0.16700
C1195       C  0.85169459  0.37988769  0.00768051     0.03000
C1196       C  0.82985187  0.39570685  0.02277748    -0.12200
C1197       C  0.81792737  0.39184177  0.06603411    -0.03300
C1198       C  0.82954837  0.37264385  0.09567335     0.02200
C1199       C  0.88106265  0.33815136  0.01764527     0.09000
N1200       N  0.86179603  0.38393071  0.96223814     0.65400
H1201       H  0.82096407  0.40991311  0.99921727     0.18300
N1202       N  0.81790020  0.36726292  0.13957688     0.75900
H1203       H  0.85901164  0.34111888  0.10286595     0.09800
C1204       C  0.90568508  0.33114028  0.03866987     0.03500
C1205       C  0.92066729  0.30877618  0.02293605    -0.05200
C1206       C  0.91129676  0.29239629  0.98724024    -0.23600
C1207       C  0.88708264  0.29986158  0.96541056     0.12800
C1208       C  0.87243749  0.32247672  0.98050154    -0.12700
N1209       N  0.91540125  0.34580297  0.07715933     0.64400
H1210       H  0.93883386  0.30321151  0.04078140     0.12300
N1211       N  0.87657466  0.28431739  0.92850822     0.61100
H1212       H  0.85341316  0.32691943  0.96451491     0.08400
O1213       O  0.82819743  0.37779934  0.17457930    -0.40400
O1214       O  0.80276569  0.34710712  0.14439110    -0.39600
O1215       O  0.84833982  0.37545256  0.92877653    -0.39600
O1216       O  0.87943160  0.40172582  0.95540879    -0.37300
O1217       O  0.85793565  0.26772401  0.93644933    -0.38200
O1218       O  0.88090013  0.29189900  0.88787577    -0.34300
O1219       O  0.91271937  0.33581196  0.11666396    -0.35700
O1220       O  0.93267292  0.36399801  0.07071636    -0.40000
C1221       C  0.54782434  0.35634777  0.01779277    -0.13700
C1222       C  0.57241374  0.34921966  0.99712301     0.16700
C1223       C  0.57332585  0.32662116  0.96773956     0.03000
C1224       C  0.55023358  0.31112168  0.96092234    -0.12200
C1225       C  0.52574757  0.31795583  0.98209051    -0.03300
C1226       C  0.52454102  0.34109319  0.01030071     0.02200
C1227       C  0.59759380  0.36245642  0.01244170     0.09000
N1228       N  0.59756625  0.31926369  0.94413877     0.65400
H1229       H  0.55136464  0.29394250  0.93819480     0.18300
N1230       N  0.50030143  0.34843951  0.03392121     0.75900
H1231       H  0.54693214  0.37305194  0.04150367     0.09800
C1232       C  0.60207762  0.39048589  0.00934071     0.03500
C1233       C  0.62625321  0.40154361  0.02547455    -0.05200
C1234       C  0.64613853  0.38507472  0.04488884    -0.23600
C1235       C  0.64095017  0.35719402  0.04959259     0.12800
C1236       C  0.61700295  0.34631610  0.03343767    -0.12700
N1237       N  0.58273369  0.40790779  0.98880360     0.64400
H1238       H  0.62971900  0.42293074  0.02180906     0.12300
N1239       N  0.65939213  0.33952135  0.07187943     0.61100
H1240       H  0.61334812  0.32502140  0.03811291     0.08400
O1241       O  0.48677476  0.36830830  0.01999635    -0.40400
O1242       O  0.49600555  0.33936279  0.07366792    -0.39600
O1243       O  0.61007518  0.29829339  0.95603443    -0.39600
O1244       O  0.60260730  0.32964615  0.90558924    -0.37300
O1245       O  0.65713200  0.33586559  0.11450946    -0.38200
O1246       O  0.67234799  0.32261625  0.04809170    -0.34300
O1247       O  0.56788166  0.42229468  0.01417688    -0.35700
O1248       O  0.58533548  0.41394434  0.94703915    -0.40000
C1249       C  0.68016422  0.13501482  0.57472131    -0.13700
C1250       C  0.66127316  0.12327112  0.54547295     0.16700
C1251       C  0.66546008  0.09635554  0.53152789     0.03000
C1252       C  0.68868202  0.08221359  0.54529079    -0.12200
C1253       C  0.70864976  0.09457960  0.57193656    -0.03300
C1254       C  0.70372550  0.12122354  0.58754818     0.02200
C1255       C  0.64009593  0.14097113  0.52480515     0.09000
N1256       N  0.64687233  0.08335067  0.50187778     0.65400
H1257       H  0.69183970  0.06199370  0.53257622     0.18300
N1258       N  0.72284750  0.13514949  0.61500913     0.75900
H1259       H  0.67741848  0.15568217  0.58550743     0.09800
C1260       C  0.61854814  0.15181144  0.55085287     0.03500
C1261       C  0.60239010  0.17250197  0.53264392    -0.05200
C1262       C  0.60763353  0.18337913  0.48899185    -0.23600
C1263       C  0.62831845  0.17160560  0.46213920     0.12800
C1264       C  0.64406285  0.15047894  0.47992415    -0.12700
N1265       N  0.61345781  0.14288367  0.59659818     0.64400
H1266       H  0.58687208  0.18138665  0.55410025     0.12300
N1267       N  0.63396441  0.18118051  0.41697886     0.61100
H1268       H  0.66050253  0.14251220  0.45945393     0.08400
O1269       O  0.71872272  0.13710476  0.65757166    -0.40400
O1270       O  0.73932000  0.15093763  0.59590100    -0.39600
O1271       O  0.65230983  0.08165503  0.45969222    -0.39600
O1272       O  0.62913879  0.06814574  0.51893443    -0.37300
O1273       O  0.65338223  0.19707536  0.41053624    -0.38200
O1274       O  0.62389657  0.16914605  0.38319271    -0.34300
O1275       O  0.62156689  0.15694130  0.62967636    -0.35700
O1276       O  0.59552100  0.12541413  0.60364843    -0.40000
C1277       C  0.41848153  0.37855070  0.55474604    -0.13700
C1278       C  0.41844943  0.36155638  0.51632073     0.16700
C1279       C  0.39436134  0.35886248  0.49145564     0.03000
C1280       C  0.37097186  0.37271164  0.50541473    -0.12200
C1281       C  0.37076275  0.38937738  0.54434711    -0.03300
C1282       C  0.39509495  0.39241904  0.56881269     0.02200
C1283       C  0.44322560  0.34569259  0.50439734     0.09000
N1284       N  0.39331555  0.34229946  0.45156875     0.65400
H1285       H  0.35270711  0.36990020  0.48604496     0.18300
N1286       N  0.39644334  0.40943321  0.60819419     0.75900
H1287       H  0.43672712  0.38076166  0.57442036     0.09800
C1288       C  0.46710983  0.35817999  0.48907543     0.03500
C1289       C  0.49029083  0.34270521  0.47981328    -0.05200
C1290       C  0.49065209  0.31458288  0.48620803    -0.23600
C1291       C  0.46678602  0.30222911  0.50280407     0.12800
C1292       C  0.44343152  0.31771661  0.51110715    -0.12700
N1293       N  0.46813033  0.38661143  0.48215629     0.64400
H1294       H  0.50810216  0.35289144  0.46731619     0.12300
N1295       N  0.46626237  0.27433783  0.51446964     0.61100
H1296       H  0.42554433  0.30791031  0.52422890     0.08400
O1297       O  0.39634746  0.43467949  0.60342817    -0.40400
O1298       O  0.39470840  0.39933670  0.64776363    -0.39600
O1299       O  0.38216603  0.31956174  0.45408279    -0.39600
O1300       O  0.39712333  0.35287672  0.41277997    -0.37300
O1301       O  0.47011873  0.26757653  0.55554254    -0.38200
O1302       O  0.45534198  0.25785713  0.48759085    -0.34300
O1303       O  0.47826333  0.40133291  0.51265020    -0.35700
O1304       O  0.46501919  0.39594692  0.44236678    -0.40000
C1305       C  0.52890833  0.22480454  0.78311392    -0.13700
C1306       C  0.52752801  0.24565015  0.75064423     0.16700
C1307       C  0.51003655  0.26744015  0.75854859     0.03000
C1308       C  0.49523595  0.26879423  0.79907872    -0.12200
C1309       C  0.49736720  0.24883917  0.83298233    -0.03300
C1310       C  0.51397377  0.22621149  0.82429903     0.02200
C1311       C  0.54117770  0.24302164  0.70575155     0.09000
N1312       N  0.50644347  0.28812984  0.72512896     0.65400
H1313       H  0.48209496  0.28598637  0.80417521     0.18300
N1314       N  0.51638860  0.20489639  0.85684438     0.75900
H1315       H  0.54155913  0.20744029  0.77640719     0.09800
C1316       C  0.56378406  0.25867110  0.69338969     0.03500
C1317       C  0.57258709  0.25934511  0.64757774    -0.05200
C1318       C  0.55871031  0.24508278  0.61380430    -0.23600
C1319       C  0.53703323  0.22828532  0.62692527     0.12800
C1320       C  0.52863049  0.22728804  0.67261674    -0.12700
N1321       N  0.57747139  0.27462500  0.72650126     0.64400
H1322       H  0.58918579  0.27225285  0.63803436     0.12300
N1323       N  0.52275765  0.21263486  0.59407795     0.61100
H1324       H  0.51129514  0.21527501  0.68183005     0.08400
O1325       O  0.50268451  0.18380186  0.85156498    -0.40400
O1326       O  0.53644967  0.20433761  0.88302093    -0.39600
O1327       O  0.48776398  0.28585829  0.69641230    -0.39600
O1328       O  0.51648342  0.31103140  0.73216499    -0.37300
O1329       O  0.52991090  0.18860956  0.58690603    -0.38200
O1330       O  0.49962766  0.22015239  0.58189785    -0.34300
O1331       O  0.59902278  0.26578658  0.74346606    -0.35700
O1332       O  0.57232616  0.29945335  0.72920160    -0.40000
C1333       C  0.51707707  0.22945460  0.26166420    -0.13700
C1334       C  0.49500503  0.24641742  0.25194651     0.16700
C1335       C  0.48443351  0.26288091  0.28706531     0.03000
C1336       C  0.49675575  0.26334690  0.32983892    -0.12200
C1337       C  0.51975028  0.24778799  0.33858747    -0.03300
C1338       C  0.52946878  0.23005562  0.30479471     0.02200
C1339       C  0.48451909  0.24838436  0.20443368     0.09000
N1340       N  0.46276858  0.28115083  0.27868722     0.65400
H1341       H  0.48920072  0.27715085  0.35562982     0.18300
N1342       N  0.55314924  0.21437010  0.31258921     0.75900
H1343       H  0.52525607  0.21648563  0.23523575     0.09800
C1344       C  0.50144638  0.25657041  0.16824393     0.03500
C1345       C  0.49123373  0.25906795  0.12416567    -0.05200
C1346       C  0.46410265  0.25338022  0.11408395    -0.23600
C1347       C  0.44689964  0.24571188  0.15058547     0.12800
C1348       C  0.45722753  0.24323808  0.19525472    -0.17500
N1349       N  0.52904030  0.26323383  0.17568679     0.64400
H1350       H  0.50504272  0.26557560  0.09756901     0.12300
N1351       N  0.41910572  0.24018308  0.14321218     0.61100
H1352       H  0.44392730  0.23710799  0.22281872     0.08400
O1353       O  0.57599547  0.22499195  0.30720952    -0.40400
O1354       O  0.55123901  0.19226258  0.33361346    -0.39600
O1355       O  0.43972086  0.27602670  0.29485335    -0.39600
O1356       O  0.46799343  0.30474021  0.26538328    -0.37300
O1357       O  0.40182945  0.25808032  0.15246371    -0.38200
O1358       O  0.41161257  0.21611557  0.13853424    -0.34300
O1359       O  0.54709324  0.24655811  0.16427526    -0.35700
O1360       O  0.53536289  0.28754647  0.18167497    -0.40000
C1361       C  0.68526958  0.30278216  0.33411441    -0.13700
C1362       C  0.67695192  0.30605124  0.28872280     0.16700
C1363       C  0.65068781  0.29835371  0.27681863     0.03000
C1364       C  0.63255411  0.28941554  0.31079869    -0.12200
C1365       C  0.64015692  0.28789655  0.35724455    -0.03300
C1366       C  0.66730708  0.29371568  0.36820036     0.02200
C1367       C  0.69369906  0.32224255  0.25649077     0.09000
N1368       N  0.64145610  0.30171256  0.23092262     0.65400
H1369       H  0.61221206  0.28487357  0.30104526     0.18300
N1370       N  0.67671870  0.29247221  0.41422087     0.75900
H1371       H  0.70529603  0.30876213  0.34362185     0.09800
C1372       C  0.69577126  0.35021506  0.26325754     0.03500
C1373       C  0.70693075  0.36636960  0.22912960    -0.05200
C1374       C  0.71619501  0.35539493  0.18765728    -0.23600
C1375       C  0.71714283  0.32719572  0.18277708     0.12800
C1376       C  0.70538217  0.31076484  0.21686685    -0.12700
N1377       N  0.68419567  0.36289162  0.30270359     0.64400
H1378       H  0.70649697  0.38807104  0.23377875     0.12300
N1379       N  0.72874355  0.31521441  0.14274080     0.61100
H1380       H  0.70452390  0.28914945  0.21172971     0.08400
O1381       O  0.67665248  0.31358954  0.43822029    -0.40400
O1382       O  0.69081601  0.27262423  0.42650637    -0.39600
O1383       O  0.64576141  0.28342584  0.20177191    -0.39600
O1384       O  0.63306219  0.32442177  0.21786445    -0.37300
O1385       O  0.75394417  0.31250551  0.13967332    -0.38200
O1386       O  0.71441822  0.31095331  0.10809941    -0.34300
O1387       O  0.69931418  0.37002134  0.33496653    -0.35700
O1388       O  0.66072289  0.37253603  0.30042378    -0.40000
C1389       C  0.84222245  0.62672719  0.57300713    -0.13700
C1390       C  0.85608229  0.62036798  0.53228253     0.16700
C1391       C  0.84930010  0.59638338  0.50912891     0.03000
C1392       C  0.82803523  0.58029024  0.52542271    -0.12200
C1393       C  0.81299151  0.58765636  0.56439958    -0.03300
C1394       C  0.82085216  0.61078466  0.58908047     0.02200
C1395       C  0.87672587  0.63974467  0.51470939     0.09000
N1396       N  0.86363547  0.58801195  0.46898714     0.65400
H1397       H  0.82235507  0.56264708  0.50596741     0.18300
N1398       N  0.80733567  0.61845178  0.63049198     0.75900
H1399       H  0.84747512  0.64476494  0.59177585     0.09800
C1400       C  0.87247258  0.65528170  0.47484141     0.03500
C1401       C  0.88987450  0.67663667  0.46391816    -0.05200
C1402       C  0.91135420  0.68350826  0.49248898    -0.23600
C1403       C  0.91603773  0.66753491  0.53178853     0.12800
C1404       C  0.89898757  0.64577470  0.54213664    -0.12700
N1405       N  0.84891803  0.65180079  0.44784232     0.64400
H1406       H  0.88549804  0.68903716  0.43441619     0.12300
N1407       N  0.93548268  0.67527558  0.56498055     0.61100
H1408       H  0.90209871  0.63463048  0.57350853     0.08400
O1409       O  0.79037787  0.63739778  0.62965249    -0.40400
O1410       O  0.81706834  0.61127111  0.66836815    -0.39600
O1411       O  0.88405601  0.57311585  0.47340735    -0.39600
O1412       O  0.85182881  0.58861088  0.43092527    -0.37300
O1413       O  0.92794917  0.68953075  0.59850018    -0.38200
O1414       O  0.95724010  0.66224005  0.56765598    -0.34300
O1415       O  0.82754198  0.66375257  0.45978451    -0.35700
O1416       O  0.85144856  0.64384141  0.40700649    -0.40000
C1417       C  0.64334908  0.37539204  0.56044912    -0.13700
C1418       C  0.64167524  0.39766366  0.53107517     0.16700
C1419       C  0.62686234  0.39540979  0.49040044     0.03000
C1420       C  0.61350591  0.37137893  0.48049896    -0.12200
C1421       C  0.61528810  0.34875428  0.50950855    -0.03300
C1422       C  0.63066953  0.35099437  0.54987729     0.02200
C1423       C  0.65680904  0.42242048  0.54251318     0.09000
N1424       N  0.62696257  0.41643273  0.45695281     0.65400
H1425       H  0.60251744  0.37021611  0.44867798     0.18300
N1426       N  0.63491339  0.32846029  0.57931710     0.75900
H1427       H  0.65517375  0.37677186  0.59138286     0.09800
C1428       C  0.64366941  0.44663501  0.55426550     0.03500
C1429       C  0.65875897  0.46913812  0.56672205    -0.05200
C1430       C  0.68704903  0.46818569  0.56838428    -0.23600
C1431       C  0.70020270  0.44384168  0.55622843     0.12800
C1432       C  0.68500984  0.42133481  0.54347905    -0.12700
N1433       N  0.61498230  0.44844897  0.55627317     0.64400
H1434       H  0.64804098  0.48732633  0.57603222     0.12300
N1435       N  0.72886989  0.44150848  0.55600801     0.61100
H1436       H  0.69528643  0.40283870  0.53443980     0.08400
O1437       O  0.65615429  0.31468824  0.57481047    -0.40400
O1438       O  0.62106232  0.32628359  0.61552926    -0.39600
O1439       O  0.64590266  0.41728126  0.42791999    -0.39600
O1440       O  0.60538402  0.42890160  0.44871809    -0.37300
O1441       O  0.74042186  0.43138950  0.59028245    -0.38200
O1442       O  0.74152090  0.44308807  0.51845257    -0.34300
O1443       O  0.60312762  0.44308668  0.59353521    -0.35700
O1444       O  0.60293445  0.46256634  0.52691009    -0.40000
C1445       C  0.60215315  0.60825578  0.56138491    -0.13700
C1446       C  0.60065206  0.61845789  0.51683985     0.16700
C1447       C  0.62208821  0.61358979  0.48606254     0.03000
C1448       C  0.64498284  0.59940157  0.50065064    -0.12200
C1449       C  0.64704847  0.58979760  0.54588904    -0.03300
C1450       C  0.62493825  0.59412438  0.57620173     0.02200
C1451       C  0.57711492  0.63539095  0.50458373     0.09000
N1452       N  0.62095902  0.62295875  0.43988973     0.65400
H1453       H  0.66135898  0.59631134  0.47657184     0.18300
N1454       N  0.62542873  0.58519428  0.62270014     0.75900
H1455       H  0.58576721  0.61190576  0.58526016     0.09800
C1456       C  0.55225310  0.62377903  0.49354029     0.03500
C1457       C  0.52968926  0.64014976  0.48667370    -0.05200
C1458       C  0.53101694  0.66835972  0.49110642    -0.23600
C1459       C  0.55600593  0.67997228  0.50299628     0.12800
C1460       C  0.57875289  0.66345477  0.50921788    -0.12700
N1461       N  0.54945536  0.59528290  0.48956846     0.64400
H1462       H  0.51096966  0.63049601  0.47770443     0.12300
N1463       N  0.55849933  0.70819968  0.51110568     0.61100
H1464       H  0.59761053  0.67250865  0.51914785     0.08400
O1465       O  0.61289818  0.56409008  0.63375203    -0.40400
O1466       O  0.63268256  0.60130801  0.65359475    -0.39600
O1467       O  0.63333278  0.64414935  0.42882722    -0.39600
O1468       O  0.61306368  0.60719905  0.40894660    -0.37300
O1469       O  0.55527939  0.71707220  0.55127890    -0.38200
O1470       O  0.57012946  0.72272727  0.48158899    -0.34300
O1471       O  0.53891940  0.58227802  0.52218306    -0.35700
O1472       O  0.55111661  0.58453879  0.45050158    -0.40000
C1473       C  0.75160075  0.51003606  0.26633091    -0.13700
C1474       C  0.75340827  0.49397647  0.30574266     0.16700
C1475       C  0.75333613  0.46566065  0.30079199     0.03000
C1476       C  0.75051415  0.45407441  0.25740560    -0.12200
C1477       C  0.74777292  0.47009991  0.21825746    -0.03300
C1478       C  0.74862560  0.49840430  0.22283859     0.02200
C1479       C  0.75104608  0.50692763  0.35163960     0.09000
N1480       N  0.75554216  0.44829770  0.33958896     0.65400
H1481       H  0.74986611  0.43234238  0.25442423     0.18300
N1482       N  0.74347910  0.51561558  0.18466981     0.75900
H1483       H  0.75068844  0.53173430  0.26962661     0.09800
C1484       C  0.76926118  0.52668007  0.36709784     0.03500
C1485       C  0.76543709  0.53881771  0.41026119    -0.05200
C1486       C  0.74379737  0.53133292  0.43864123    -0.23600
C1487       C  0.72523307  0.51213970  0.42246897     0.12800
C1488       C  0.72885300  0.50041019  0.37932985    -0.12700
N1489       N  0.79265136  0.53333859  0.34076934     0.64400
H1490       H  0.78026474  0.55290567  0.42269426     0.12300
N1491       N  0.70257050  0.50413893  0.44961966     0.61100
H1492       H  0.71412661  0.48608363  0.36735481     0.08400
O1493       O  0.76261270  0.52868033  0.16686696    -0.40400
O1494       O  0.71958886  0.52266258  0.17649720    -0.39600
O1495       O  0.73497320  0.43582227  0.35358767    -0.39600
O1496       O  0.77852454  0.44008296  0.35130220    -0.37300
O1497       O  0.68083219  0.51716090  0.44634963    -0.38200
O1498       O  0.70209228  0.48073814  0.46633652    -0.34300
O1499       O  0.79384059  0.55579708  0.32070935    -0.35700
O1500       O  0.81391272  0.51977284  0.34600462    -0.40000
C1501       C  0.72628842  0.45162582  0.86330872    -0.13700
C1502       C  0.75211704  0.45509188  0.84401489     0.16700
C1503       C  0.77475634  0.44758840  0.86994608     0.03000
C1504       C  0.77127752  0.43689973  0.91394417    -0.12200
C1505       C  0.74551927  0.43356643  0.93324138    -0.03300
C1506       C  0.72281762  0.44094211  0.90745312     0.02200
C1507       C  0.75475491  0.46809495  0.79818703     0.09000
N1508       N  0.80149452  0.45100448  0.85257408     0.65400
H1509       H  0.78889349  0.43169271  0.93356651     0.18300
N1510       N  0.69635668  0.44018183  0.92698306     0.75900
H1511       H  0.70876545  0.45840127  0.84492832     0.09800
C1512       C  0.74023245  0.45845009  0.76033459     0.03500
C1513       C  0.73988216  0.47313421  0.71966317    -0.05200
C1514       C  0.75388994  0.49745819  0.71514374    -0.23600
C1515       C  0.76997978  0.50633534  0.75160697     0.12800
C1516       C  0.76997355  0.49182562  0.79302950    -0.12700
N1517       N  0.72512151  0.43405929  0.76276133     0.64400
H1518       H  0.72762903  0.46592447  0.69174319     0.12300
N1519       N  0.78527601  0.53055123  0.74817264     0.61100
H1520       H  0.78092167  0.49980995  0.82177181     0.08400
O1521       O  0.68034096  0.42191121  0.91489423    -0.40400
O1522       O  0.68716471  0.46085481  0.94684824    -0.39600
O1523       O  0.81559073  0.47012719  0.86748668    -0.39600
O1524       O  0.81297575  0.43154246  0.83261824    -0.37300
O1525       O  0.80952810  0.52917106  0.73523909    -0.38200
O1526       O  0.77727282  0.55127169  0.76920808    -0.34300
O1527       O  0.69978850  0.43533496  0.76554172    -0.35700
O1528       O  0.73602214  0.41244432  0.74942913    -0.40000
C1529       C  0.64925132  0.82368692  0.98764278    -0.13700
C1530       C  0.64325129  0.83555158  0.03015811     0.16700
C1531       C  0.61937889  0.82785685  0.05320064     0.03000
C1532       C  0.60324701  0.80717489  0.03528862    -0.12200
C1533       C  0.61030085  0.79400436  0.99426201    -0.03300
C1534       C  0.63300732  0.80328506  0.96948465     0.02200
C1535       C  0.66299449  0.85498447  0.04970299     0.09000
N1536       N  0.61099955  0.84101573  0.09441211     0.65400
H1537       H  0.58584880  0.80052503  0.05475724     0.18300
N1538       N  0.63966660  0.79243150  0.92549212     0.75900
H1539       H  0.66705251  0.82991354  0.96882787     0.09800
C1540       C  0.68115155  0.84708061  0.08414149     0.03500
C1541       C  0.70343923  0.86323675  0.09435481    -0.05200
C1542       C  0.70813602  0.88768950  0.07150890    -0.23600
C1543       C  0.68865623  0.89671741  0.03975511     0.12800
C1544       C  0.66664620  0.88016981  0.02872059    -0.12700
N1545       N  0.67849168  0.82175434  0.10682430     0.64400
H1546       H  0.71785263  0.85597790  0.11915906     0.12300
N1547       N  0.69167432  0.92173810  0.01617332     0.61100
H1548       H  0.65291116  0.88655054  0.00217473     0.08400
O1549       O  0.65961471  0.77682616  0.92129045    -0.40400
O1550       O  0.62977301  0.80314669  0.89022691    -0.39600
O1551       O  0.59500512  0.86071700  0.09182157    -0.39600
O1552       O  0.61345514  0.82895906  0.13216285    -0.37300
O1553       O  0.70194387  0.92192222  0.97654168    -0.38200
O1554       O  0.67806494  0.94180688  0.02936841    -0.34300
O1555       O  0.69230876  0.80203182  0.09275468    -0.35700
O1556       O  0.66900933  0.82123973  0.14702831    -0.40000
C1557       C  0.46726126  0.62208175  0.98980059    -0.13700
C1558       C  0.44321242  0.63681459  0.99291901     0.16700
C1559       C  0.44426214  0.66505951  0.98838770     0.03000
C1560       C  0.46900461  0.67801582  0.98158397    -0.12200
C1561       C  0.49332759  0.66347685  0.97921473    -0.03300
C1562       C  0.49213924  0.63499515  0.98315571     0.02200
C1563       C  0.41796676  0.62289203  0.00721490     0.09000
N1564       N  0.42027586  0.68096767  0.99022366     0.65400
H1565       H  0.46903525  0.69969380  0.97812370     0.18300
N1566       N  0.51590273  0.61874072  0.98186894     0.75900
H1567       H  0.46687063  0.60046483  0.99427061     0.09800
C1568       C  0.40600628  0.60227083  0.98102283     0.03500
C1569       C  0.38287974  0.58905252  0.99752579    -0.05200
C1570       C  0.37173300  0.59558859  0.04039784    -0.23600
C1571       C  0.38368006  0.61622907  0.06642419     0.12800
C1572       C  0.40650689  0.62957603  0.04974415    -0.12700
N1573       N  0.41681212  0.59470887  0.93741748     0.64400
H1574       H  0.37380130  0.57342240  0.97703423     0.12300
N1575       N  0.37197200  0.62510295  0.10864090     0.61100
H1576       H  0.41551093  0.64514118  0.07046340     0.08400
O1577       O  0.52651474  0.61157303  0.01904990    -0.40400
O1578       O  0.52187263  0.60621783  0.94557540    -0.39600
O1579       O  0.41495628  0.69437771  0.02587510    -0.39600
O1580       O  0.40839576  0.68666207  0.95344704    -0.37300
O1581       O  0.38115500  0.61620825  0.14585884    -0.38200
O1582       O  0.35825134  0.64650801  0.10892386    -0.34300
O1583       O  0.42996980  0.57303658  0.93388881    -0.35700
O1584       O  0.40747968  0.60550756  0.90179366    -0.40000
C1585       C  0.56696008  0.74054081  0.19934455    -0.13700
C1586       C  0.53965719  0.73673225  0.21093475     0.16700
C1587       C  0.52177898  0.72916670  0.17611629     0.03000
C1588       C  0.53122646  0.72508584  0.13142757    -0.12200
C1589       C  0.55850806  0.72872241  0.11919274    -0.03300
C1590       C  0.57644522  0.73690237  0.15396829     0.02200
C1591       C  0.52989567  0.73947067  0.25936382     0.09000
N1592       N  0.49386410  0.72482183  0.18568377     0.65400
H1593       H  0.51673476  0.71892458  0.10607140     0.18300
N1594       N  0.60403926  0.74247594  0.14389639     0.75900
H1595       H  0.58092559  0.74673397  0.22551055     0.09800
C1596       C  0.53987910  0.72263127  0.29417965     0.03500
C1597       C  0.52687498  0.72168747  0.33682800    -0.05200
C1598       C  0.50414763  0.73765812  0.34650762    -0.23600
C1599       C  0.49590756  0.75673137  0.31362470     0.12800
C1600       C  0.50859429  0.75724784  0.27023039    -0.12700
N1601       N  0.56210134  0.70493847  0.28598197     0.64400
H1602       H  0.53393296  0.70735910  0.36202961     0.12300
N1603       N  0.47408477  0.77478834  0.32273636     0.61100
H1604       H  0.50124850  0.77101319  0.24443881     0.08400
O1605       O  0.62184620  0.72577439  0.15573611    -0.40400
O1606       O  0.61086514  0.76624863  0.13414096    -0.39600
O1607       O  0.47691700  0.74247913  0.17414438    -0.39600
O1608       O  0.48584630  0.70143756  0.19549098    -0.37300
O1609       O  0.47911543  0.79798665  0.33791955    -0.38200
O1610       O  0.45147712  0.77038217  0.30501359    -0.34300
O1611       O  0.58480892  0.71081930  0.30212792    -0.35700
O1612       O  0.55768980  0.68111931  0.27319347    -0.40000
C1613       C  0.48257561  0.71318800  0.69203864    -0.13700
C1614       C  0.47925387  0.73800734  0.71432638     0.16700
C1615       C  0.46567180  0.75894491  0.69125462     0.03000
C1616       C  0.45597966  0.75484700  0.64654767    -0.12200
C1617       C  0.46033671  0.73034465  0.62363765    -0.03300
C1618       C  0.47377362  0.70937694  0.64694163     0.02200
C1619       C  0.49195342  0.74148722  0.76015266     0.09000
N1620       N  0.46259143  0.78484405  0.71177494     0.65400
H1621       H  0.44643395  0.77135187  0.62875921     0.18300
N1622       N  0.47948115  0.68431085  0.62483159     0.75900
H1623       H  0.49313047  0.69702136  0.70906959     0.09800
C1624       C  0.48028746  0.73005168  0.79975352     0.03500
C1625       C  0.49549817  0.72711574  0.83975491    -0.05200
C1626       C  0.52232616  0.73580163  0.84170456    -0.23600
C1627       C  0.53347560  0.74902705  0.80319266     0.12800
C1628       C  0.51829342  0.75165617  0.76279072    -0.12700
N1629       N  0.45329832  0.72028893  0.79934394     0.64400
H1630       H  0.48657151  0.71706807  0.86905563     0.12300
N1631       N  0.56076671  0.75795594  0.80316823     0.61100
H1632       H  0.52767448  0.76018682  0.73254326     0.08400
O1633       O  0.50196919  0.68101079  0.60519517    -0.40400
O1634       O  0.46564399  0.66393410  0.63520868    -0.39600
O1635       O  0.47878047  0.80332724  0.70087225    -0.39600
O1636       O  0.44048794  0.79092444  0.73072622    -0.37300
O1637       O  0.57906119  0.74235467  0.78881370    -0.38200
O1638       O  0.56560823  0.78277401  0.80676129    -0.34300
O1639       O  0.44917000  0.69527671  0.79744886    -0.35700
O1640       O  0.43436975  0.73577668  0.81147462    -0.40000
C1641       C  0.68507616  0.67973628  0.82874588    -0.13700
C1642       C  0.67405285  0.67380671  0.78575642     0.16700
C1643       C  0.64669431  0.67959665  0.77808395     0.03000
C1644       C  0.63085360  0.69011959  0.81353092    -0.12200
C1645       C  0.64107604  0.69365248  0.85800658    -0.03300
C1646       C  0.66887021  0.68927132  0.86495120     0.02200
C1647       C  0.68938050  0.65625701  0.75373273     0.09000
N1648       N  0.63364331  0.67150393  0.73686935     0.65400
H1649       H  0.60967734  0.69322074  0.80681564     0.18300
N1650       N  0.68071578  0.69258657  0.90895485     0.75900
H1651       H  0.70600320  0.67503617  0.83519967     0.09800
C1652       C  0.69476854  0.66314292  0.70771468     0.03500
C1653       C  0.70464602  0.64352447  0.67734014    -0.05200
C1654       C  0.70956284  0.61702182  0.69210836    -0.23600
C1655       C  0.70643567  0.61104499  0.73934468     0.12800
C1656       C  0.69628713  0.63054537  0.76926938    -0.12700
N1657       N  0.69085395  0.68995439  0.69136888     0.64400
H1658       H  0.70767121  0.64894026  0.64181434     0.12300
N1659       N  0.71287116  0.58523459  0.75792760     0.61100
H1660       H  0.69261756  0.62510582  0.80465931     0.08400
O1661       O  0.69423981  0.71348309  0.91696306    -0.40400
O1662       O  0.68315894  0.67241295  0.93487132    -0.39600
O1663       O  0.62507988  0.64769475  0.73369336    -0.39600
O1664       O  0.62405191  0.68931709  0.71083500    -0.37300
O1665       O  0.69469235  0.56761554  0.76068617    -0.38200
O1666       O  0.73315345  0.58316749  0.78335227    -0.34300
O1667       O  0.70962016  0.70674540  0.69609656    -0.35700
O1668       O  0.67312955  0.69434759  0.66159225    -0.40000
C1669       C  0.65212545  0.60323203  0.05206154    -0.13700
C1670       C  0.65270132  0.58218402  0.01997399     0.16700
C1671       C  0.63734641  0.58482321  0.97985448     0.03000
C1672       C  0.62212564  0.60822911  0.97240801    -0.12200
C1673       C  0.62148739  0.62950243  0.00434553    -0.03300
C1674       C  0.63683146  0.62667807  0.04474891     0.02200
C1675       C  0.66676713  0.55660466  0.03197596     0.09000
N1676       N  0.63586661  0.56347275  0.94722054     0.65400
H1677       H  0.61057687  0.60958009  0.94119200     0.18300
N1678       N  0.63722651  0.64726319  0.07886152     0.75900
H1679       H  0.66344685  0.60128913  0.08345917     0.09800
C1680       C  0.69003759  0.54723498  0.00879616     0.03500
C1681       C  0.70232781  0.52298003  0.02230378    -0.05200
C1682       C  0.69228226  0.50783333  0.05943280    -0.23600
C1683       C  0.66927401  0.51782045  0.08325455     0.12800
C1684       C  0.65682840  0.54172960  0.06912041    -0.12700
N1685       N  0.70248431  0.56276570  0.97335949     0.64400
H1686       H  0.72011538  0.51625286  0.00395013     0.12300
N1687       N  0.65827102  0.50435977  0.12239018     0.61100
H1688       H  0.63923687  0.54886707  0.08762934     0.08400
O1689       O  0.65680088  0.66335500  0.08002686    -0.40400
O1690       O  0.62180162  0.64539060  0.11325853    -0.39600
O1691       O  0.61709112  0.54654951  0.95084031    -0.39600
O1692       O  0.64783510  0.56601756  0.90919604    -0.37300
O1693       O  0.66396056  0.51281609  0.16186555    -0.38200
O1694       O  0.63799029  0.48945605  0.11751692    -0.34300
O1695       O  0.72038218  0.57952491  0.98408995    -0.35700
O1696       O  0.70161917  0.55436960  0.93263563    -0.40000
loop_ 
_geom_bond_atom_site_label_1 
_geom_bond_atom_site_label_2 
_geom_bond_distance 
_geom_bond_site_symmetry_2 
_ccdc_geom_bond_type 
O1          Cr19   2.038       .  S
O1            C9   1.277       .  A
O2          Cr19   1.957   1_554  S
O2            C3   1.260       .  A
C3            O4   1.277       .  A
C3         C1589   1.505       .  S
O4          Cr20   2.058   1_554  S
O5          Cr20   1.990   1_554  S
O5            C6   1.261   1_554  A
C6            O7   1.266       .  A
C6         C1673   1.500   1_556  S
O7          Cr21   2.012       .  S
O8          Cr21   1.978       .  S
O8            C9   1.262       .  A
C9         C1561   1.500       .  S
O10         Cr19   2.008       .  S
O10          C18   1.264       .  A
O11         Cr19   2.036       .  S
O11          C12   1.270       .  A
C12          O13   1.255       .  A
C12        C1533   1.491       .  S
O13         Cr20   1.973       .  S
O14         Cr20   2.044       .  S
O14          C15   1.275       .  A
C15          O16   1.259       .  A
C15        C1645   1.493       .  S
O16         Cr21   1.953       .  S
O17         Cr21   2.015       .  S
O17          C18   1.265       .  A
C18        C1626   1.488       .  S
Cr19         O22   1.768       .  S
Cr20         O22   1.779       .  S
Cr21         O22   1.764       .  S
O23         Cr41   2.030       .  S
O23          C31   1.273       .  A
O24         Cr41   1.957       .  S
O24          C25   1.255       .  A
C25          O26   1.273       .  A
C25        C1486   1.480       .  S
O26         Cr42   2.039       .  S
O27         Cr42   1.991       .  S
O27          C28   1.260       .  A
C28          O29   1.260       .  A
C28        C1449   1.497       .  S
O29         Cr43   2.007       .  S
O30         Cr43   1.967       .  S
O30          C31   1.264       .  A
C31        C1430   1.490       .  S
O32         Cr41   2.005       .  S
O32          C40   1.263       .  A
O33         Cr41   2.031       .  S
O33          C34   1.270       .  A
C34          O35   1.255       .  A
C34        C1393   1.489       .  S
O35         Cr42   1.974       .  S
O36         Cr42   2.030       .  S
O36          C37   1.276       .  A
C37          O38   1.260       .  A
C37        C1654   1.487       .  S
O38         Cr43   1.959       .  S
O39         Cr43   1.988       .  S
O39          C40   1.262       .  A
C40        C1514   1.476       .  S
Cr41         O44   1.775       .  S
Cr42         O44   1.769       .  S
Cr43         O44   1.762       .  S
O45         Cr63   1.950       .  S
O45          C53   1.257       .  A
O46         Cr63   2.042       .  S
O46          C47   1.275       .  A
C47          O48   1.267       .  A
C47        C1290   1.506       .  S
O48         Cr64   1.989       .  S
O49         Cr64   1.992       .  S
O49          C50   1.261       .  A
C50          O51   1.261       .  A
C50        C1421   1.494       .  S
O51         Cr65   1.994       .  S
O52         Cr65   2.033       .  S
O52          C53   1.273       .  A
C53        C1318   1.476       .  S
O54         Cr63   2.035       .  S
O54          C62   1.269       .  A
O55         Cr63   1.993       .  S
O55          C56   1.262       .  A
C56          O57   1.260       .  A
C56        C1337   1.472       .  S
O57         Cr64   1.988       .  S
O58         Cr64   1.987       .  S
O58          C59   1.266       .  A
C59          O60   1.274       .  A
C59        C1365   1.504       .  S
O60         Cr65   2.034       .  S
O61         Cr65   1.985       .  S
O61          C62   1.258       .  A
C62        C1262   1.495       .  S
Cr63         O66   1.780       .  S
Cr64         O66   1.769       .  S
Cr65         O66   1.777       .  S
O67         Cr85   1.998       .  S
O67          C75   1.266   1_554  A
O68         Cr85   2.000       .  S
O68          C69   1.266       .  A
C69          O70   1.262       .  A
C69        C1682   1.500       .  S
O70         Cr86   1.995       .  S
O71         Cr86   1.998       .  S
O71          C72   1.261       .  A
C72          O73   1.258       .  A
C72        C1234   1.486       .  S
O73         Cr87   1.993       .  S
O74         Cr87   2.002   1_556  S
O74          C75   1.268       .  A
C75        C1505   1.478       .  S
O76         Cr85   2.025       .  S
O76          C84   1.269       .  A
O77         Cr85   2.012       .  S
O77          C78   1.264       .  A
C78          O79   1.260       .  A
C78        C1477   1.480       .  S
O79         Cr86   1.975       .  S
O80         Cr86   1.986       .  S
O80          C81   1.267       .  A
C81          O82   1.269       .  A
C81        C1374   1.478       .  S
O82         Cr87   2.001       .  S
O83         Cr87   1.996       .  S
O83          C84   1.260       .  A
C84        C1197   1.491       .  S
Cr85         O88   1.780       .  S
Cr86         O88   1.772       .  S
Cr87         O88   1.779       .  S
O89        Cr107   2.038       .  S
O89          C97   1.275       .  A
O90        Cr107   1.940   1_554  S
O90          C91   1.255       .  A
C91          O92   1.276       .  A
C91        C1346   1.497       .  S
O92        Cr108   2.054   1_554  S
O93        Cr108   1.985   1_554  S
O93          C94   1.256   1_554  A
C94          O95   1.259       .  A
C94        C1169   1.478   1_556  S
O95        Cr109   1.988       .  S
O96        Cr109   1.969       .  S
O96          C97   1.258       .  A
C97        C1225   1.482       .  S
O98        Cr107   2.000       .  S
O98         C106   1.264       .  A
O99        Cr107   2.039       .  S
O99         C100   1.272       .  A
C100        O101   1.257       .  A
C100       C1113   1.491       .  S
O101       Cr108   1.975       .  S
O102       Cr108   2.051       .  S
O102        C103   1.280       .  A
C103        O104   1.260       .  A
C103       C1141   1.498       .  S
O104       Cr109   1.961       .  S
O105       Cr109   1.988       .  S
O105        C106   1.264       .  A
C106       C1309   1.483       .  S
Cr107       O110   1.768       .  S
Cr108       O110   1.769       .  S
Cr109       O110   1.757       .  S
O111       Cr129   2.036       .  S
O111        C119   1.273       .  A
O112       Cr129   1.948       .  S
O112        C113   1.255       .  A
C113        O114   1.274       .  A
C113       C1057   1.482       .  S
O114       Cr130   2.036       .  S
O115       Cr130   1.990       .  S
O115        C116   1.259       .  A
C116        O117   1.261       .  A
C116       C1281   1.499       .  S
O117       Cr131   2.007       .  S
O118       Cr131   1.978       .  S
O118        C119   1.264       .  A
C119       C1038   1.499       .  S
O120       Cr129   2.000       .  S
O120        C128   1.265       .  A
O121       Cr129   2.048       .  S
O121        C122   1.272       .  A
C122        O123   1.259       .  A
C122       C1010   1.502       .  S
O123       Cr130   1.972       .  S
O124       Cr130   2.049       .  S
O124        C125   1.277       .  A
C125        O126   1.263       .  A
C125       C1150   1.503       .  S
O126       Cr131   1.968       .  S
O127       Cr131   1.990       .  S
O127        C128   1.263       .  A
C128       C1085   1.479       .  S
Cr129       O132   1.782       .  S
Cr130       O132   1.775       .  S
Cr131       O132   1.761       .  S
O133       Cr151   1.970       .  S
O133        C141   1.258       .  A
O134       Cr151   2.042       .  S
O134        C135   1.274       .  A
C135        O136   1.262       .  A
C135       C1458   1.496       .  S
O136       Cr152   1.967       .  S
O137       Cr152   2.012       .  S
O137        C138   1.265       .  A
C138        O139   1.260       .  A
C138       C1029   1.504       .  S
O139       Cr153   1.998       .  S
O140       Cr153   2.044       .  S
O140        C141   1.275       .  A
C141       C1617   1.486       .  S
O142       Cr151   2.041       .  S
O142        C150   1.273       .  A
O143       Cr151   2.010       .  S
O143        C144   1.265       .  A
C144        O145   1.265       .  A
C144       C1598   1.487       .  S
O145       Cr152   2.001       .  S
O146       Cr152   1.967       .  S
O146        C147   1.259       .  A
C147        O148   1.278       .  A
C147        C973   1.494       .  S
O148       Cr153   2.041       .  S
O149       Cr153   1.980       .  S
O149        C150   1.257       .  A
C150        C954   1.501       .  S
Cr151       O154   1.776       .  S
Cr152       O154   1.760       .  S
Cr153       O154   1.773       .  S
O155       Cr173   1.936       .  S
O155        C163   1.252   1_554  A
O156       Cr173   2.018       .  S
O156        C157   1.272       .  A
C157        O158   1.260       .  A
C157       C1178   1.483       .  S
O158       Cr174   1.968       .  S
O159       Cr174   2.019       .  S
O159        C160   1.264       .  A
C160        O161   1.259       .  A
C160       C1570   1.481       .  S
O161       Cr175   1.985       .  S
O162       Cr175   2.055       .  S
O162        C163   1.278   1_554  A
C163       C1094   1.483       .  S
O164       Cr173   2.033       .  S
O164        C172   1.268       .  A
O165       Cr173   1.978       .  S
O165        C166   1.259       .  A
C166        O167   1.266       .  A
C166       C1066   1.467       .  S
O167       Cr174   2.012       .  S
O168       Cr174   1.952       .  S
O168        C169   1.256       .  A
C169        O170   1.280       .  A
C169        C982   1.496       .  S
O170       Cr175   2.056       .  S
O171       Cr175   1.972       .  S
O171        C172   1.258       .  A
C172        C917   1.489       .  S
Cr173       O176   1.766       .  S
Cr174       O176   1.764       .  S
Cr175       O176   1.762       .  S
O177       Cr195   2.000       .  S
O177        C185   1.265       .  A
O178       Cr195   2.001       .  S
O178        C179   1.268       .  A
C179        O180   1.265       .  A
C179        C805   1.488       .  S
O180       Cr196   1.992       .  S
O181       Cr196   1.991       .  S
O181        C182   1.259       .  A
C182        O183   1.259       .  A
C182        C898   1.479       .  S
O183       Cr197   1.983       .  S
O184       Cr197   2.004       .  S
O184        C185   1.263       .  A
C185        C786   1.492   1_455  S
O186       Cr195   2.021       .  S
O186        C194   1.269       .  A
O187       Cr195   2.014       .  S
O187        C188   1.268       .  A
C188        O189   1.260       .  A
C188       C1001   1.483       .  S
O189       Cr196   1.988       .  S
O190       Cr196   1.995       .  S
O190        C191   1.265       .  A
C191        O192   1.267       .  A
C191        C870   1.477       .  S
O192       Cr197   2.000       .  S
O193       Cr197   1.964       .  S
O193        C194   1.258       .  A
C194        C842   1.488       .  S
Cr195       O198   1.775       .  S
Cr196       O198   1.780       .  S
Cr197       O198   1.771       .  S
O199       Cr217   2.036   1_565  S
O199        C207   1.276       .  A
O200       Cr217   1.950       .  S
O200        C201   1.258   1_554  A
C201        O202   1.273   1_556  A
C201        C721   1.491       .  S
O202       Cr218   2.037       .  S
O203       Cr218   1.994       .  S
O203        C204   1.260       .  A
C204        O205   1.261       .  A
C204        C702   1.493       .  S
O205       Cr219   1.996       .  S
O206       Cr219   1.983       .  S
O206        C207   1.264   1_545  A
C207        C674   1.502       .  S
O208       Cr217   2.009       .  S
O208        C216   1.264       .  A
O209       Cr217   2.041       .  S
O209        C210   1.270       .  A
C210        O211   1.258       .  A
C210       C1122   1.503       .  S
O211       Cr218   1.972       .  S
O212       Cr218   2.031       .  S
O212        C213   1.276       .  A
C213        O214   1.260       .  A
C213        C861   1.490       .  S
O214       Cr219   1.965       .  S
O215       Cr219   1.994       .  S
O215        C216   1.263       .  A
C216        C758   1.487   1_545  S
Cr217       O220   1.773       .  S
Cr218       O220   1.776       .  S
Cr219       O220   1.768       .  S
O221       Cr239   1.963   1_554  S
O221        C229   1.257       .  A
O222       Cr239   2.027       .  S
O222        C223   1.272       .  A
C223        O224   1.263       .  A
C223        C553   1.488   1_455  S
O224       Cr240   1.962       .  S
O225       Cr240   2.027       .  S
O225        C226   1.265       .  A
C226        O227   1.259   1_556  A
C226        C665   1.502   1_556  S
O227       Cr241   1.984   1_554  S
O228       Cr241   2.043   1_554  S
O228        C229   1.275       .  A
C229        C609   1.498       .  S
O230       Cr239   2.045       .  S
O230        C238   1.271       .  A
O231       Cr239   2.000       .  S
O231        C232   1.265       .  A
C232        O233   1.266       .  A
C232        C646   1.487       .  S
O233       Cr240   2.001       .  S
O234       Cr240   1.964       .  S
O234        C235   1.259       .  A
C235        O236   1.277       .  A
C235        C581   1.497       .  S
O236       Cr241   2.043       .  S
O237       Cr241   1.958       .  S
O237        C238   1.256       .  A
C238        C926   1.497       .  S
Cr239       O242   1.783       .  S
Cr240       O242   1.766       .  S
Cr241       O242   1.767       .  S
O243       Cr261   1.965       .  S
O243        C251   1.257       .  A
O244       Cr261   2.024       .  S
O244        C245   1.273       .  A
C245        O246   1.261       .  A
C245        C889   1.486   1_565  S
O246       Cr262   1.972       .  S
O247       Cr262   1.995       .  S
O247        C248   1.262       .  A
C248        O249   1.260       .  A
C248        C534   1.493       .  S
O249       Cr263   1.996       .  S
O250       Cr263   2.037       .  S
O250        C251   1.273       .  A
C251        C749   1.481       .  S
O252       Cr261   2.041       .  S
O252        C260   1.272       .  A
O253       Cr261   2.010       .  S
O253        C254   1.266       .  A
C254        O255   1.263       .  A
C254        C730   1.490       .  S
O255       Cr262   1.984       .  S
O256       Cr262   1.965       .  S
O256        C257   1.259       .  A
C257        O258   1.276       .  A
C257        C590   1.493       .  S
O258       Cr263   2.034       .  S
O259       Cr263   1.978       .  S
O259        C260   1.257       .  A
C260        C945   1.494       .  S
Cr261       O264   1.771       .  S
Cr262       O264   1.761       .  S
Cr263       O264   1.770       .  S
O265       Cr283   2.030   1_455  S
O265        C273   1.272       .  A
O266       Cr283   1.955       .  S
O266        C267   1.257       .  A
C267        O268   1.270       .  A
C267        C637   1.476       .  S
O268       Cr284   2.027       .  S
O269       Cr284   1.991       .  S
O269        C270   1.260       .  A
C270        O271   1.260       .  A
C270        C497   1.491       .  S
O271       Cr285   2.004       .  S
O272       Cr285   1.969       .  S
O272        C273   1.263   1_655  A
C273        C525   1.484       .  S
O274       Cr283   2.018       .  S
O274        C282   1.266       .  A
O275       Cr283   2.028       .  S
O275        C276   1.268       .  A
C276        O277   1.260       .  A
C276       C1402   1.491       .  S
O277       Cr284   1.979       .  S
O278       Cr284   2.032       .  S
O278        C279   1.274       .  A
C279        O280   1.262       .  A
C279        C478   1.481       .  S
O280       Cr285   1.973       .  S
O281       Cr285   1.990       .  S
O281        C282   1.262       .  A
C282        C618   1.498   1_655  S
Cr283       O286   1.784       .  S
Cr284       O286   1.779       .  S
Cr285       O286   1.768       .  S
O287       Cr305   2.029       .  S
O287        C295   1.271       .  A
O288       Cr305   1.959       .  S
O288        C289   1.258   1_554  A
C289        O290   1.270   1_556  A
C289        C422   1.497       .  S
O290       Cr306   2.038       .  S
O291       Cr306   1.986       .  S
O291        C292   1.261       .  A
C292        O293   1.261       .  A
C292        C562   1.484       .  S
O293       Cr307   1.998       .  S
O294       Cr307   1.968       .  S
O294        C295   1.261       .  A
C295        C385   1.495   1_565  S
O296       Cr305   1.995       .  S
O296        C304   1.264       .  A
O297       Cr305   2.036       .  S
O297        C298   1.271       .  A
C298        O299   1.263       .  A
C298       C1542   1.498       .  S
O299       Cr306   1.979       .  S
O300       Cr306   2.042       .  S
O300        C301   1.273       .  A
C301        O302   1.262       .  A
C301        C469   1.485       .  S
O302       Cr307   1.975       .  S
O303       Cr307   1.996       .  S
O303        C304   1.261       .  A
C304        C441   1.480       .  S
Cr305       O308   1.780       .  S
Cr306       O308   1.779       .  S
Cr307       O308   1.772       .  S
O309       Cr327   1.935   1_554  S
O309        C317   1.255       .  A
O310       Cr327   2.032   1_455  S
O310        C311   1.277       .  A
C311        O312   1.262   1_455  A
C311        C693   1.492       .  S
O312       Cr328   1.973       .  S
O313       Cr328   1.995       .  S
O313        C314   1.260       .  A
C314        O315   1.257   1_556  A
C314        C394   1.493   1_556  S
O315       Cr329   1.995   1_554  S
O316       Cr329   2.052   1_554  S
O316        C317   1.275       .  A
C317        C833   1.499       .  S
O318       Cr327   2.034       .  S
O318        C326   1.271       .  A
O319       Cr327   1.998       .  S
O319        C320   1.262       .  A
C320        O321   1.261       .  A
C320        C814   1.482       .  S
O321       Cr328   1.989       .  S
O322       Cr328   1.961       .  S
O322        C323   1.260       .  A
C323        O324   1.281       .  A
C323        C357   1.493       .  S
O324       Cr329   2.047       .  S
O325       Cr329   1.974       .  S
O325        C326   1.256       .  A
C326       C1206   1.495       .  S
Cr327       O330   1.768       .  S
Cr328       O330   1.765       .  S
Cr329       O330   1.774       .  S
O331       Cr349   1.962       .  S
O331        C339   1.260       .  A
O332       Cr349   2.043   1_565  S
O332        C333   1.277       .  A
C333        O334   1.268   1_565  A
C333        C506   1.496       .  S
O334       Cr350   1.976       .  S
O335       Cr350   2.005       .  S
O335        C336   1.257       .  A
C336        O337   1.257       .  A
C336        C777   1.495       .  S
O337       Cr351   1.988       .  S
O338       Cr351   2.036       .  S
O338        C339   1.274       .  A
C339        C450   1.489       .  S
O340       Cr349   2.029       .  S
O340        C348   1.269       .  A
O341       Cr349   2.015       .  S
O341        C342   1.263       .  A
C342        O343   1.259       .  A
C342        C413   1.491       .  S
O343       Cr350   1.986       .  S
O344       Cr350   1.964       .  S
O344        C345   1.263       .  A
C345        O346   1.279       .  A
C345        C366   1.495       .  S
O346       Cr351   2.039       .  S
O347       Cr351   1.982       .  S
O347        C348   1.257       .  A
C348       C1253   1.505       .  S
Cr349       O352   1.781       .  S
Cr350       O352   1.773       .  S
Cr351       O352   1.778       .  S
C353        C354   1.402       .  A
C353        C358   1.400       .  A
C353        H363   1.080       .  S
C354        C359   1.496       .  S
C354        C355   1.416       .  A
C355        C356   1.405       .  A
C355        N360   1.429       .  S
C356        C357   1.404       .  A
C356        H361   1.082       .  S
C357        C358   1.419       .  A
C358        N362   1.430       .  S
C359        C364   1.416       .  A
C359        C368   1.403       .  A
N360        O375   1.262       .  A
N360        O376   1.261       .  A
N362        O373   1.262       .  A
N362        O374   1.262       .  A
C364        C365   1.406       .  A
C364        N369   1.429       .  S
C365        C366   1.407       .  A
C365        H370   1.081       .  S
C366        C367   1.418       .  A
C367        C368   1.399       .  A
C367        N371   1.430       .  S
C368        H372   1.079       .  S
N369        O379   1.262       .  A
N369        O380   1.262       .  A
N371        O377   1.262       .  A
N371        O378   1.262       .  A
C381        C382   1.403       .  A
C381        C386   1.404       .  A
C381        H391   1.084       .  S
C382        C387   1.486       .  S
C382        C383   1.408       .  A
C383        C384   1.400       .  A
C383        N388   1.429       .  S
C384        C385   1.409       .  A
C384        H389   1.083   1_545  S
C385        C386   1.417       .  A
C386        N390   1.428       .  S
C387        C392   1.409   1_554  A
C387        C396   1.404       .  A
N388        O403   1.262       .  A
N388        O404   1.262       .  A
N390        O401   1.262       .  A
N390        O402   1.262       .  A
C392        C393   1.398       .  A
C392        N397   1.429       .  S
C393        C394   1.408   1_556  A
C393        H398   1.082       .  S
C394        C395   1.416       .  A
C395        C396   1.405       .  A
C395        N399   1.428       .  S
C396        H400   1.083       .  S
N397        O407   1.262       .  A
N397        O408   1.262       .  A
N399        O405   1.262       .  A
N399        O406   1.262       .  A
C409        C410   1.407       .  A
C409        C414   1.411   1_565  A
C409        H419   1.083   1_565  S
C410        C415   1.484       .  S
C410        C411   1.403       .  A
C411        C412   1.395       .  A
C411        N416   1.429       .  S
C412        C413   1.409   1_565  A
C412        H417   1.084       .  S
C413        C414   1.414       .  A
C414        N418   1.428       .  S
C415        C420   1.404       .  A
C415        C424   1.405       .  A
N416        O431   1.262       .  A
N416        O432   1.262       .  A
N418        O429   1.262       .  A
N418        O430   1.262       .  A
C420        C421   1.396       .  A
C420        N425   1.429   1_565  S
C421        C422   1.410       .  A
C421        H426   1.082       .  S
C422        C423   1.419       .  A
C423        C424   1.410       .  A
C423        N427   1.429       .  S
C424        H428   1.082       .  S
N425        O435   1.262       .  A
N425        O436   1.262       .  A
N427        O433   1.262       .  A
N427        O434   1.262       .  A
C437        C438   1.403   1_565  A
C437        C442   1.401       .  A
C437        H447   1.083       .  S
C438        C443   1.489       .  S
C438        C439   1.412       .  A
C439        C440   1.408   1_545  A
C439        N444   1.428       .  S
C440        C441   1.405       .  A
C440        H445   1.083   1_565  S
C441        C442   1.411       .  A
C442        N446   1.429       .  S
C443        C448   1.408       .  A
C443        C452   1.407       .  A
N444        O459   1.262       .  A
N444        O460   1.262       .  A
N446        O457   1.262       .  A
N446        O458   1.262       .  A
C448        C449   1.399       .  A
C448        N453   1.429   1_545  S
C449        C450   1.406       .  A
C449        H454   1.083       .  S
C450        C451   1.413       .  A
C451        C452   1.412       .  A
C451        N455   1.428       .  S
C452        H456   1.082       .  S
N453        O463   1.262       .  A
N453        O464   1.262   1_565  A
N455        O461   1.261       .  A
N455        O462   1.262       .  A
C465        C466   1.407       .  A
C465        C470   1.404       .  A
C465        H475   1.076       .  S
C466        C471   1.507       .  S
C466        C467   1.420       .  A
C467        C468   1.408       .  A
C467        N472   1.429       .  S
C468        C469   1.401       .  A
C468        H473   1.081       .  S
C469        C470   1.411       .  A
C470        N474   1.428       .  S
C471        C476   1.422       .  A
C471        C480   1.410       .  A
N472        O487   1.262       .  A
N472        O488   1.262       .  A
N474        O485   1.262       .  A
N474        O486   1.260       .  A
C476        C477   1.405       .  A
C476        N481   1.430       .  S
C477        C478   1.400       .  A
C477        H482   1.084       .  S
C478        C479   1.408       .  A
C479        C480   1.404       .  A
C479        N483   1.429       .  S
C480        H484   1.082       .  S
N481        O491   1.263       .  A
N481        O492   1.261       .  A
N483        O489   1.262       .  A
N483        O490   1.262       .  A
C493        C494   1.405       .  A
C493        C498   1.403       .  A
C493        H503   1.079       .  S
C494        C499   1.501       .  S
C494        C495   1.416       .  A
C495        C496   1.407       .  A
C495        N500   1.429       .  S
C496        C497   1.405       .  A
C496        H501   1.080       .  S
C497        C498   1.414       .  A
C498        N502   1.429       .  S
C499        C504   1.414       .  A
C499        C508   1.407       .  A
N500        O515   1.262       .  A
N500        O516   1.261       .  A
N502        O513   1.262       .  A
N502        O514   1.262       .  A
C504        C505   1.401       .  A
C504        N509   1.429       .  S
C505        C506   1.405       .  A
C505        H510   1.083       .  S
C506        C507   1.416       .  A
C507        C508   1.409       .  A
C507        N511   1.429       .  S
C508        H512   1.081       .  S
N509        O519   1.262       .  A
N509        O520   1.262       .  A
N511        O517   1.262       .  A
N511        O518   1.262       .  A
C521        C522   1.405       .  A
C521        C526   1.406       .  A
C521        H531   1.082       .  S
C522        C527   1.484       .  S
C522        C523   1.407       .  A
C523        C524   1.398       .  A
C523        N528   1.428       .  S
C524        C525   1.404       .  A
C524        H529   1.082       .  S
C525        C526   1.414       .  A
C526        N530   1.429       .  S
C527        C532   1.406       .  A
C527        C536   1.403       .  A
N528        O543   1.262       .  A
N528        O544   1.262       .  A
N530        O541   1.261       .  A
N530        O542   1.262       .  A
C532        C533   1.397       .  A
C532        N537   1.429       .  S
C533        C534   1.410       .  A
C533        H538   1.081       .  S
C534        C535   1.416       .  A
C535        C536   1.405       .  A
C535        N539   1.428       .  S
C536        H540   1.081       .  S
N537        O547   1.262       .  A
N537        O548   1.262       .  A
N539        O545   1.262       .  A
N539        O546   1.262       .  A
C549        C550   1.405       .  A
C549        C554   1.403       .  A
C549        H559   1.080       .  S
C550        C555   1.491   1_556  S
C550        C551   1.413       .  A
C551        C552   1.396       .  A
C551        N556   1.430       .  S
C552        C553   1.406       .  A
C552        H557   1.083   1_655  S
C553        C554   1.415       .  A
C554        N558   1.429       .  S
C555        C560   1.415   1_554  A
C555        C564   1.404       .  A
N556        O571   1.262   1_556  A
N556        O572   1.261       .  A
N558        O569   1.262       .  A
N558        O570   1.261   1_556  A
C560        C561   1.401       .  A
C560        N565   1.429       .  S
C561        C562   1.404   1_556  A
C561        H566   1.081       .  S
C562        C563   1.415       .  A
C563        C564   1.399       .  A
C563        N567   1.431       .  S
C564        H568   1.078       .  S
N565        O575   1.262       .  A
N565        O576   1.262       .  A
N567        O573   1.262       .  A
N567        O574   1.262       .  A
C577        C578   1.402       .  A
C577        C582   1.399       .  A
C577        H587   1.079       .  S
C578        C583   1.499       .  S
C578        C579   1.418       .  A
C579        C580   1.407       .  A
C579        N584   1.430       .  S
C580        C581   1.406       .  A
C580        H585   1.082       .  S
C581        C582   1.418       .  A
C582        N586   1.429       .  S
C583        C588   1.418       .  A
C583        C592   1.404       .  A
N584        O599   1.262       .  A
N584        O600   1.262       .  A
N586        O597   1.262       .  A
N586        O598   1.262       .  A
C588        C589   1.404       .  A
C588        N593   1.430       .  S
C589        C590   1.405       .  A
C589        H594   1.080       .  S
C590        C591   1.418       .  A
C591        C592   1.401       .  A
C591        N595   1.430       .  S
C592        H596   1.077       .  S
N593        O603   1.262       .  A
N593        O604   1.261       .  A
N595        O601   1.262       .  A
N595        O602   1.262       .  A
C605        C606   1.397       .  A
C605        C610   1.399       .  A
C605        H615   1.083       .  S
C606        C611   1.489       .  S
C606        C607   1.412       .  A
C607        C608   1.410       .  A
C607        N612   1.427       .  S
C608        C609   1.408       .  A
C608        H613   1.082       .  S
C609        C610   1.421       .  A
C610        N614   1.428       .  S
C611        C616   1.404       .  A
C611        C620   1.409       .  A
N612        O627   1.262       .  A
N612        O628   1.261       .  A
N614        O625   1.262       .  A
N614        O626   1.261   1_455  A
C616        C617   1.397       .  A
C616        N621   1.429       .  S
C617        C618   1.410       .  A
C617        H622   1.082       .  S
C618        C619   1.415       .  A
C619        C620   1.414       .  A
C619        N623   1.428   1_455  S
C620        H624   1.081       .  S
N621        O631   1.262       .  A
N621        O632   1.261       .  A
N623        O629   1.262       .  A
N623        O630   1.262       .  A
C633        C634   1.406       .  A
C633        C638   1.405       .  A
C633        H643   1.082       .  S
C634        C639   1.480   1_655  S
C634        C635   1.404       .  A
C635        C636   1.397       .  A
C635        N640   1.428   1_655  S
C636        C637   1.405       .  A
C636        H641   1.083       .  S
C637        C638   1.408       .  A
C638        N642   1.428       .  S
C639        C644   1.405       .  A
C639        C648   1.402   1_455  A
N640        O655   1.262   1_455  A
N640        O656   1.262       .  A
N642        O653   1.262       .  A
N642        O654   1.262       .  A
C644        C645   1.396       .  A
C644        N649   1.430       .  S
C645        C646   1.405       .  A
C645        H650   1.081       .  S
C646        C647   1.415       .  A
C647        C648   1.410   1_455  A
C647        N651   1.427       .  S
C648        H652   1.083       .  S
N649        O659   1.262       .  A
N649        O660   1.262       .  A
N651        O657   1.262   1_455  A
N651        O658   1.262       .  A
C661        C662   1.406   1_556  A
C661        C666   1.406       .  A
C661        H671   1.082       .  S
C662        C667   1.502       .  S
C662        C663   1.415       .  A
C663        C664   1.408       .  A
C663        N668   1.429       .  S
C664        C665   1.409       .  A
C664        H669   1.082       .  S
C665        C666   1.416   1_554  A
C666        N670   1.428       .  S
C667        C672   1.415       .  A
C667        C676   1.406       .  A
N668        O683   1.262       .  A
N668        O684   1.262       .  A
N670        O681   1.262       .  A
N670        O682   1.262       .  A
C672        C673   1.406       .  A
C672        N677   1.428       .  S
C673        C674   1.407       .  A
C673        H678   1.083       .  S
C674        C675   1.418       .  A
C675        C676   1.406       .  A
C675        N679   1.429       .  S
C676        H680   1.084       .  S
N677        O687   1.262       .  A
N677        O688   1.262       .  A
N679        O685   1.262   1_565  A
N679        O686   1.262       .  A
C689        C690   1.402       .  A
C689        C694   1.403   1_554  A
C689        H699   1.082       .  S
C690        C695   1.486       .  S
C690        C691   1.410       .  A
C691        C692   1.400       .  A
C691        N696   1.429       .  S
C692        C693   1.406   1_554  A
C692        H697   1.082       .  S
C693        C694   1.419       .  A
C694        N698   1.429       .  S
C695        C700   1.409       .  A
C695        C704   1.402       .  A
N696        O711   1.262   1_554  A
N696        O712   1.262       .  A
N698        O709   1.262       .  A
N698        O710   1.262   1_456  A
C700        C701   1.400       .  A
C700        N705   1.429       .  S
C701        C702   1.409       .  A
C701        H706   1.082       .  S
C702        C703   1.415       .  A
C703        C704   1.403       .  A
C703        N707   1.426   1_554  S
C704        H708   1.082   1_554  S
N705        O715   1.262       .  A
N705        O716   1.262       .  A
N707        O713   1.261       .  A
N707        O714   1.262       .  A
C717        C718   1.405       .  A
C717        C722   1.406       .  A
C717        H727   1.082       .  S
C718        C723   1.486       .  S
C718        C719   1.406       .  A
C719        C720   1.395       .  A
C719        N724   1.429   1_545  S
C720        C721   1.409       .  A
C720        H725   1.082   1_545  S
C721        C722   1.413       .  A
C722        N726   1.426       .  S
C723        C728   1.406       .  A
C723        C732   1.408   1_545  A
N724        O739   1.262       .  A
N724        O740   1.262       .  A
N726        O737   1.262       .  A
N726        O738   1.260       .  A
C728        C729   1.392   1_545  A
C728        N733   1.430       .  S
C729        C730   1.409       .  A
C729        H734   1.082       .  S
C730        C731   1.413       .  A
C731        C732   1.409       .  A
C731        N735   1.427       .  S
C732        H736   1.082       .  S
N733        O743   1.262       .  A
N733        O744   1.262       .  A
N735        O741   1.262       .  A
N735        O742   1.262       .  A
C745        C746   1.402       .  A
C745        C750   1.399       .  A
C745        H755   1.082       .  S
C746        C751   1.489       .  S
C746        C747   1.411       .  A
C747        C748   1.408       .  A
C747        N752   1.427       .  S
C748        C749   1.404       .  A
C748        H753   1.081       .  S
C749        C750   1.413       .  A
C750        N754   1.430       .  S
C751        C756   1.408       .  A
C751        C760   1.408       .  A
N752        O767   1.262       .  A
N752        O768   1.262       .  A
N754        O765   1.262       .  A
N754        O766   1.262       .  A
C756        C757   1.396       .  A
C756        N761   1.429       .  S
C757        C758   1.405       .  A
C757        H762   1.083       .  S
C758        C759   1.412   1_565  A
C759        C760   1.412   1_545  A
C759        N763   1.428       .  S
C760        H764   1.082       .  S
N761        O771   1.262       .  A
N761        O772   1.262       .  A
N763        O769   1.262       .  A
N763        O770   1.262       .  A
C773        C774   1.403       .  A
C773        C778   1.404       .  A
C773        H783   1.082       .  S
C774        C779   1.497       .  S
C774        C775   1.415       .  A
C775        C776   1.405       .  A
C775        N780   1.429       .  S
C776        C777   1.406       .  A
C776        H781   1.083       .  S
C777        C778   1.417       .  A
C778        N782   1.428       .  S
C779        C784   1.416       .  A
C779        C788   1.402       .  A
N780        O795   1.262       .  A
N780        O796   1.262       .  A
N782        O793   1.262       .  A
N782        O794   1.262       .  A
C784        C785   1.407       .  A
C784        N789   1.429       .  S
C785        C786   1.404       .  A
C785        H790   1.083       .  S
C786        C787   1.417       .  A
C787        C788   1.403       .  A
C787        N791   1.428       .  S
C788        H792   1.082       .  S
N789        O799   1.262       .  A
N789        O800   1.262       .  A
N791        O797   1.262       .  A
N791        O798   1.262       .  A
C801        C802   1.403       .  A
C801        C806   1.401       .  A
C801        H811   1.081       .  S
C802        C807   1.483       .  S
C802        C803   1.406       .  A
C803        C804   1.398       .  A
C803        N808   1.428       .  S
C804        C805   1.408       .  A
C804        H809   1.081       .  S
C805        C806   1.413       .  A
C806        N810   1.426       .  S
C807        C812   1.408       .  A
C807        C816   1.406       .  A
N808        O823   1.262       .  A
N808        O824   1.261   1_455  A
N810        O821   1.262       .  A
N810        O822   1.261       .  A
C812        C813   1.392   1_455  A
C812        N817   1.430       .  S
C813        C814   1.405       .  A
C813        H818   1.080       .  S
C814        C815   1.412   1_655  A
C815        C816   1.407       .  A
C815        N819   1.428       .  S
C816        H820   1.081       .  S
N817        O827   1.262       .  A
N817        O828   1.262   1_455  A
N819        O825   1.262       .  A
N819        O826   1.262       .  A
C829        C830   1.408       .  A
C829        C834   1.413       .  A
C829        H839   1.082       .  S
C830        C835   1.487   1_655  S
C830        C831   1.406   1_655  A
C831        C832   1.390   1_455  A
C831        N836   1.431       .  S
C832        C833   1.412       .  A
C832        H837   1.082   1_655  S
C833        C834   1.415       .  A
C834        N838   1.427       .  S
C835        C840   1.410       .  A
C835        C844   1.400       .  A
N836        O851   1.262       .  A
N836        O852   1.262       .  A
N838        O849   1.262       .  A
N838        O850   1.262       .  A
C840        C841   1.407       .  A
C840        N845   1.428   1_455  S
C841        C842   1.408       .  A
C841        H846   1.082       .  S
C842        C843   1.417       .  A
C843        C844   1.396       .  A
C843        N847   1.430       .  S
C844        H848   1.083       .  S
N845        O855   1.262       .  A
N845        O856   1.261       .  A
N847        O853   1.261       .  A
N847        O854   1.261       .  A
C857        C858   1.400       .  A
C857        C862   1.398       .  A
C857        H867   1.082       .  S
C858        C863   1.484       .  S
C858        C859   1.409       .  A
C859        C860   1.404       .  A
C859        N864   1.428       .  S
C860        C861   1.408       .  A
C860        H865   1.081       .  S
C861        C862   1.419       .  A
C862        N866   1.430       .  S
C863        C868   1.410       .  A
C863        C872   1.407       .  A
N864        O879   1.262       .  A
N864        O880   1.261       .  A
N866        O877   1.262       .  A
N866        O878   1.262       .  A
C868        C869   1.398       .  A
C868        N873   1.430       .  S
C869        C870   1.402       .  A
C869        H874   1.079       .  S
C870        C871   1.409       .  A
C871        C872   1.406       .  A
C871        N875   1.428       .  S
C872        H876   1.081       .  S
N873        O883   1.262       .  A
N873        O884   1.262       .  A
N875        O881   1.262       .  A
N875        O882   1.262       .  A
C885        C886   1.401       .  A
C885        C890   1.402       .  A
C885        H895   1.079       .  S
C886        C891   1.484       .  S
C886        C887   1.413       .  A
C887        C888   1.397       .  A
C887        N892   1.430       .  S
C888        C889   1.404       .  A
C888        H893   1.080       .  S
C889        C890   1.417       .  A
C890        N894   1.428   1_545  S
C891        C896   1.412       .  A
C891        C900   1.400       .  A
N892        O907   1.262       .  A
N892        O908   1.262       .  A
N894        O905   1.262       .  A
N894        O906   1.262       .  A
C896        C897   1.401       .  A
C896        N901   1.428       .  S
C897        C898   1.404       .  A
C897        H902   1.081       .  S
C898        C899   1.414       .  A
C899        C900   1.395       .  A
C899        N903   1.428       .  S
C900        H904   1.080       .  S
N901        O911   1.262       .  A
N901        O912   1.262       .  A
N903        O909   1.261       .  A
N903        O910   1.262       .  A
C913        C914   1.401       .  A
C913        C918   1.406       .  A
C913        H923   1.083   1_554  S
C914        C919   1.488       .  S
C914        C915   1.409       .  A
C915        C916   1.403       .  A
C915        N920   1.427       .  S
C916        C917   1.405       .  A
C916        H921   1.083       .  S
C917        C918   1.417       .  A
C918        N922   1.427   1_554  S
C919        C924   1.407   1_554  A
C919        C928   1.404       .  A
N920        O935   1.262       .  A
N920        O936   1.262       .  A
N922        O933   1.262       .  A
N922        O934   1.261   1_556  A
C924        C925   1.399       .  A
C924        N929   1.429       .  S
C925        C926   1.409       .  A
C925        H930   1.082       .  S
C926        C927   1.418   1_556  A
C927        C928   1.411       .  A
C927        N931   1.428       .  S
C928        H932   1.082       .  S
N929        O939   1.262       .  A
N929        O940   1.262       .  A
N931        O937   1.262       .  A
N931        O938   1.262       .  A
C941        C942   1.407       .  A
C941        C946   1.408       .  A
C941        H951   1.079       .  S
C942        C947   1.505       .  S
C942        C943   1.417       .  A
C943        C944   1.410       .  A
C943        N948   1.429       .  S
C944        C945   1.405       .  A
C944        H949   1.080       .  S
C945        C946   1.414       .  A
C946        N950   1.429       .  S
C947        C952   1.416       .  A
C947        C956   1.405       .  A
N948        O963   1.262       .  A
N948        O964   1.261       .  A
N950        O961   1.262       .  A
N950        O962   1.262       .  A
C952        C953   1.410       .  A
C952        N957   1.428       .  S
C953        C954   1.406       .  A
C953        H958   1.081       .  S
C954        C955   1.418       .  A
C955        C956   1.408       .  A
C955        N959   1.429       .  S
C956        H960   1.080       .  S
N957        O967   1.262       .  A
N957        O968   1.262       .  A
N959        O965   1.262       .  A
N959        O966   1.262       .  A
C969        C970   1.401       .  A
C969        C974   1.405       .  A
C969        H979   1.081       .  S
C970        C975   1.491       .  S
C970        C971   1.413       .  A
C971        C972   1.402       .  A
C971        N976   1.429       .  S
C972        C973   1.404       .  A
C972        H977   1.081       .  S
C973        C974   1.421       .  A
C974        N978   1.429       .  S
C975        C980   1.413       .  A
C975        C984   1.398       .  A
N976        O991   1.262       .  A
N976        O992   1.261       .  A
N978        O989   1.261       .  A
N978        O990   1.262       .  A
C980        C981   1.409       .  A
C980        N985   1.428       .  S
C981        C982   1.407       .  A
C981        H986   1.082       .  S
C982        C983   1.422       .  A
C983        C984   1.396       .  A
C983        N987   1.430       .  S
C984        H988   1.082       .  S
N985        O995   1.262       .  A
N985        O996   1.261       .  A
N987        O993   1.262       .  A
N987        O994   1.262       .  A
C997        C998   1.403       .  A
C997       C1002   1.405       .  A
C997       H1007   1.082       .  S
C998       C1003   1.495       .  S
C998        C999   1.412       .  A
C999       C1000   1.409       .  A
C999       N1004   1.427       .  S
C1000      C1001   1.405       .  A
C1000      H1005   1.082       .  S
C1001      C1002   1.411       .  A
C1002      N1006   1.428       .  S
C1003      C1008   1.410       .  A
C1003      C1012   1.404       .  A
N1004      O1019   1.262       .  A
N1004      O1020   1.262       .  A
N1006      O1017   1.261       .  A
N1006      O1018   1.262       .  A
C1008      C1009   1.405       .  A
C1008      N1013   1.429       .  S
C1009      C1010   1.408       .  A
C1009      H1014   1.082       .  S
C1010      C1011   1.419       .  A
C1011      C1012   1.412       .  A
C1011      N1015   1.428       .  S
C1012      H1016   1.081       .  S
N1013      O1023   1.262       .  A
N1013      O1024   1.262       .  A
N1015      O1021   1.261       .  A
N1015      O1022   1.261       .  A
C1025      C1026   1.406       .  A
C1025      C1030   1.408       .  A
C1025      H1035   1.083       .  S
C1026      C1031   1.498       .  S
C1026      C1027   1.411       .  A
C1027      C1028   1.404       .  A
C1027      N1032   1.429       .  S
C1028      C1029   1.409       .  A
C1028      H1033   1.082       .  S
C1029      C1030   1.419       .  A
C1030      N1034   1.428       .  S
C1031      C1036   1.413       .  A
C1031      C1040   1.405       .  A
N1032      O1047   1.262       .  A
N1032      O1048   1.262       .  A
N1034      O1045   1.261       .  A
N1034      O1046   1.262       .  A
C1036      C1037   1.404       .  A
C1036      N1041   1.429       .  S
C1037      C1038   1.408       .  A
C1037      H1042   1.082       .  S
C1038      C1039   1.417       .  A
C1039      C1040   1.406       .  A
C1039      N1043   1.428       .  S
C1040      H1044   1.083       .  S
N1041      O1051   1.262       .  A
N1041      O1052   1.262       .  A
N1043      O1049   1.262       .  A
N1043      O1050   1.262       .  A
C1053      C1054   1.399       .  A
C1053      C1058   1.394       .  A
C1053      H1063   1.082       .  S
C1054      C1059   1.483       .  S
C1054      C1055   1.413       .  A
C1055      C1056   1.406       .  A
C1055      N1060   1.428       .  S
C1056      C1057   1.404       .  A
C1056      H1061   1.081       .  S
C1057      C1058   1.416       .  A
C1058      N1062   1.430       .  S
C1059      C1064   1.416       .  A
C1059      C1068   1.403       .  A
N1060      O1075   1.262       .  A
N1060      O1076   1.262       .  A
N1062      O1073   1.262       .  A
N1062      O1074   1.262       .  A
C1064      C1065   1.400       .  A
C1064      N1069   1.429       .  S
C1065      C1066   1.396       .  A
C1065      H1070   1.084       .  S
C1066      C1067   1.409       .  A
C1067      C1068   1.400       .  A
C1067      N1071   1.429       .  S
C1068      H1072   1.084       .  S
N1069      O1079   1.262       .  A
N1069      O1080   1.261       .  A
N1071      O1077   1.262       .  A
N1071      O1078   1.262       .  A
C1081      C1082   1.405       .  A
C1081      C1086   1.410       .  A
C1081      H1091   1.082       .  S
C1082      C1087   1.483       .  S
C1082      C1083   1.410       .  A
C1083      C1084   1.393       .  A
C1083      N1088   1.430       .  S
C1084      C1085   1.402       .  A
C1084      H1089   1.084       .  S
C1085      C1086   1.413       .  A
C1086      N1090   1.428       .  S
C1087      C1092   1.413       .  A
C1087      C1096   1.396       .  A
N1088      O1103   1.262       .  A
N1088      O1104   1.262       .  A
N1090      O1101   1.261       .  A
N1090      O1102   1.262       .  A
C1092      C1093   1.407       .  A
C1092      N1097   1.427       .  S
C1093      C1094   1.402       .  A
C1093      H1098   1.082       .  S
C1094      C1095   1.420       .  A
C1095      C1096   1.393       .  A
C1095      N1099   1.431       .  S
C1096      H1100   1.083       .  S
N1097      O1107   1.262       .  A
N1097      O1108   1.262       .  A
N1099      O1105   1.261       .  A
N1099      O1106   1.262       .  A
C1109      C1110   1.405   1_556  A
C1109      C1114   1.407       .  A
C1109      H1119   1.082       .  S
C1110      C1115   1.498       .  S
C1110      C1111   1.413       .  A
C1111      C1112   1.408       .  A
C1111      N1116   1.428       .  S
C1112      C1113   1.406   1_554  A
C1112      H1117   1.083       .  S
C1113      C1114   1.414       .  A
C1114      N1118   1.429       .  S
C1115      C1120   1.411       .  A
C1115      C1124   1.407       .  A
N1116      O1131   1.262       .  A
N1116      O1132   1.261       .  A
N1118      O1129   1.262       .  A
N1118      O1130   1.262       .  A
C1120      C1121   1.403       .  A
C1120      N1125   1.429       .  S
C1121      C1122   1.408       .  A
C1121      H1126   1.083       .  S
C1122      C1123   1.418       .  A
C1123      C1124   1.413       .  A
C1123      N1127   1.428       .  S
C1124      H1128   1.082       .  S
N1125      O1135   1.262       .  A
N1125      O1136   1.262       .  A
N1127      O1133   1.262       .  A
N1127      O1134   1.262   1_554  A
C1137      C1138   1.400       .  A
C1137      C1142   1.400       .  A
C1137      H1147   1.082       .  S
C1138      C1143   1.493       .  S
C1138      C1139   1.413       .  A
C1139      C1140   1.408       .  A
C1139      N1144   1.428       .  S
C1140      C1141   1.408       .  A
C1140      H1145   1.081       .  S
C1141      C1142   1.422       .  A
C1142      N1146   1.430       .  S
C1143      C1148   1.410       .  A
C1143      C1152   1.406       .  A
N1144      O1159   1.262       .  A
N1144      O1160   1.261       .  A
N1146      O1157   1.262       .  A
N1146      O1158   1.262       .  A
C1148      C1149   1.402       .  A
C1148      N1153   1.429       .  S
C1149      C1150   1.411       .  A
C1149      H1154   1.082       .  S
C1150      C1151   1.417       .  A
C1151      C1152   1.409       .  A
C1151      N1155   1.428       .  S
C1152      H1156   1.082       .  S
N1153      O1163   1.262       .  A
N1153      O1164   1.262       .  A
N1155      O1161   1.262       .  A
N1155      O1162   1.262       .  A
C1165      C1166   1.401       .  A
C1165      C1170   1.402       .  A
C1165      H1175   1.083       .  S
C1166      C1171   1.468       .  S
C1166      C1167   1.403   1_554  A
C1167      C1168   1.393       .  A
C1167      N1172   1.429       .  S
C1168      C1169   1.407   1_556  A
C1168      H1173   1.083       .  S
C1169      C1170   1.413       .  A
C1170      N1174   1.428       .  S
C1171      C1176   1.403       .  A
C1171      C1180   1.398       .  A
N1172      O1187   1.262       .  A
N1172      O1188   1.262       .  A
N1174      O1185   1.262       .  A
N1174      O1186   1.262       .  A
C1176      C1177   1.395       .  A
C1176      N1181   1.428       .  S
C1177      C1178   1.407       .  A
C1177      H1182   1.080       .  S
C1178      C1179   1.418       .  A
C1179      C1180   1.399       .  A
C1179      N1183   1.429       .  S
C1180      H1184   1.082       .  S
N1181      O1191   1.262       .  A
N1181      O1192   1.261       .  A
N1183      O1189   1.262       .  A
N1183      O1190   1.262       .  A
C1193      C1194   1.409       .  A
C1193      C1198   1.413       .  A
C1193      H1203   1.080       .  S
C1194      C1199   1.505       .  S
C1194      C1195   1.415       .  A
C1195      C1196   1.406       .  A
C1195      N1200   1.429   1_554  S
C1196      C1197   1.404       .  A
C1196      H1201   1.082   1_554  S
C1197      C1198   1.413       .  A
C1198      N1202   1.428       .  S
C1199      C1204   1.416       .  A
C1199      C1208   1.406   1_554  A
N1200      O1215   1.262       .  A
N1200      O1216   1.262       .  A
N1202      O1213   1.262       .  A
N1202      O1214   1.261       .  A
C1204      C1205   1.410       .  A
C1204      N1209   1.428       .  S
C1205      C1206   1.406   1_554  A
C1205      H1210   1.081       .  S
C1206      C1207   1.415       .  A
C1207      C1208   1.406       .  A
C1207      N1211   1.429       .  S
C1208      H1212   1.080       .  S
N1209      O1219   1.262       .  A
N1209      O1220   1.262       .  A
N1211      O1217   1.262       .  A
N1211      O1218   1.262       .  A
C1221      C1222   1.403   1_554  A
C1221      C1226   1.404       .  A
C1221      H1231   1.082       .  S
C1222      C1227   1.488   1_556  S
C1222      C1223   1.414       .  A
C1223      C1224   1.400       .  A
C1223      N1228   1.429       .  S
C1224      C1225   1.401       .  A
C1224      H1229   1.082       .  S
C1225      C1226   1.415   1_556  A
C1226      N1230   1.429       .  S
C1227      C1232   1.414       .  A
C1227      C1236   1.398       .  A
N1228      O1243   1.262       .  A
N1228      O1244   1.262       .  A
N1230      O1241   1.262       .  A
N1230      O1242   1.262       .  A
C1232      C1233   1.408       .  A
C1232      N1237   1.427   1_554  S
C1233      C1234   1.404       .  A
C1233      H1238   1.082       .  S
C1234      C1235   1.416       .  A
C1235      C1236   1.395       .  A
C1235      N1239   1.428       .  S
C1236      H1240   1.083       .  S
N1237      O1247   1.262   1_556  A
N1237      O1248   1.262       .  A
N1239      O1245   1.262       .  A
N1239      O1246   1.262       .  A
C1249      C1250   1.403       .  A
C1249      C1254   1.408       .  A
C1249      H1259   1.082       .  S
C1250      C1255   1.500       .  S
C1250      C1251   1.412       .  A
C1251      C1252   1.411       .  A
C1251      N1256   1.428       .  S
C1252      C1253   1.409       .  A
C1252      H1257   1.082       .  S
C1253      C1254   1.420       .  A
C1254      N1258   1.429       .  S
C1255      C1260   1.413       .  A
C1255      C1264   1.406       .  A
N1256      O1271   1.262       .  A
N1256      O1272   1.262       .  A
N1258      O1269   1.262       .  A
N1258      O1270   1.262       .  A
C1260      C1261   1.409       .  A
C1260      N1265   1.428       .  S
C1261      C1262   1.407       .  A
C1261      H1266   1.082       .  S
C1262      C1263   1.413       .  A
C1263      C1264   1.409       .  A
C1263      N1267   1.428       .  S
C1264      H1268   1.082       .  S
N1265      O1275   1.262       .  A
N1265      O1276   1.262       .  A
N1267      O1273   1.262       .  A
N1267      O1274   1.262       .  A
C1277      C1278   1.405       .  A
C1277      C1282   1.407       .  A
C1277      H1287   1.083       .  S
C1278      C1283   1.498       .  S
C1278      C1279   1.412       .  A
C1279      C1280   1.406       .  A
C1279      N1284   1.428       .  S
C1280      C1281   1.407       .  A
C1280      H1285   1.083       .  S
C1281      C1282   1.418       .  A
C1282      N1286   1.430       .  S
C1283      C1288   1.410       .  A
C1283      C1292   1.404       .  A
N1284      O1299   1.262       .  A
N1284      O1300   1.262       .  A
N1286      O1297   1.262       .  A
N1286      O1298   1.262       .  A
C1288      C1289   1.407       .  A
C1288      N1293   1.428       .  S
C1289      C1290   1.410       .  A
C1289      H1294   1.082       .  S
C1290      C1291   1.419       .  A
C1291      C1292   1.410       .  A
C1291      N1295   1.427       .  S
C1292      H1296   1.082       .  S
N1293      O1303   1.262       .  A
N1293      O1304   1.262       .  A
N1295      O1301   1.262       .  A
N1295      O1302   1.262       .  A
C1305      C1306   1.406       .  A
C1305      C1310   1.409       .  A
C1305      H1315   1.083       .  S
C1306      C1311   1.476       .  S
C1306      C1307   1.404       .  A
C1307      C1308   1.390       .  A
C1307      N1312   1.429       .  S
C1308      C1309   1.405       .  A
C1308      H1313   1.083       .  S
C1309      C1310   1.414       .  A
C1310      N1314   1.428       .  S
C1311      C1316   1.413       .  A
C1311      C1320   1.396       .  A
N1312      O1327   1.262       .  A
N1312      O1328   1.262       .  A
N1314      O1325   1.262       .  A
N1314      O1326   1.262       .  A
C1316      C1317   1.404       .  A
C1316      N1321   1.429       .  S
C1317      C1318   1.402       .  A
C1317      H1322   1.081       .  S
C1318      C1319   1.415       .  A
C1319      C1320   1.396       .  A
C1319      N1323   1.430       .  S
C1320      H1324   1.082       .  S
N1321      O1331   1.261       .  A
N1321      O1332   1.261       .  A
N1323      O1329   1.262       .  A
N1323      O1330   1.262       .  A
C1333      C1334   1.412       .  A
C1333      C1338   1.407       .  A
C1333      H1343   1.081       .  S
C1334      C1339   1.489       .  S
C1334      C1335   1.409       .  A
C1335      C1336   1.396       .  A
C1335      N1340   1.429       .  S
C1336      C1337   1.403       .  A
C1336      H1341   1.083       .  S
C1337      C1338   1.405       .  A
C1338      N1342   1.429       .  S
C1339      C1344   1.406       .  A
C1339      C1348   1.409       .  A
N1340      O1355   1.262       .  A
N1340      O1356   1.262       .  A
N1342      O1353   1.262       .  A
N1342      O1354   1.262       .  A
C1344      C1345   1.393       .  A
C1344      N1349   1.430       .  S
C1345      C1346   1.412       .  A
C1345      H1350   1.082       .  S
C1346      C1347   1.414       .  A
C1347      C1348   1.411       .  A
C1347      N1351   1.427       .  S
C1348      H1352   1.081       .  S
N1349      O1359   1.262       .  A
N1349      O1360   1.262       .  A
N1351      O1357   1.262       .  A
N1351      O1358   1.261       .  A
C1361      C1362   1.401       .  A
C1361      C1366   1.406       .  A
C1361      H1371   1.078       .  S
C1362      C1367   1.489       .  S
C1362      C1363   1.408       .  A
C1363      C1364   1.407       .  A
C1363      N1368   1.430       .  S
C1364      C1365   1.413       .  A
C1364      H1369   1.077       .  S
C1365      C1366   1.420       .  A
C1366      N1370   1.428       .  S
C1367      C1372   1.408       .  A
C1367      C1376   1.410       .  A
N1368      O1383   1.262       .  A
N1368      O1384   1.262       .  A
N1370      O1381   1.262       .  A
N1370      O1382   1.262       .  A
C1372      C1373   1.392       .  A
C1372      N1377   1.429       .  S
C1373      C1374   1.402       .  A
C1373      H1378   1.087       .  S
C1374      C1375   1.409       .  A
C1375      C1376   1.411       .  A
C1375      N1379   1.428       .  S
C1376      H1380   1.086       .  S
N1377      O1387   1.262       .  A
N1377      O1388   1.262       .  A
N1379      O1385   1.261       .  A
N1379      O1386   1.260       .  A
C1389      C1390   1.405       .  A
C1389      C1394   1.404       .  A
C1389      H1399   1.084       .  S
C1390      C1395   1.497       .  S
C1390      C1391   1.413       .  A
C1391      C1392   1.407       .  A
C1391      N1396   1.428       .  S
C1392      C1393   1.404       .  A
C1392      H1397   1.084       .  S
C1393      C1394   1.414       .  A
C1394      N1398   1.429       .  S
C1395      C1400   1.414       .  A
C1395      C1404   1.405       .  A
N1396      O1411   1.262       .  A
N1396      O1412   1.262       .  A
N1398      O1409   1.262       .  A
N1398      O1410   1.262       .  A
C1400      C1401   1.406       .  A
C1400      N1405   1.428       .  S
C1401      C1402   1.404       .  A
C1401      H1406   1.082       .  S
C1402      C1403   1.416       .  A
C1403      C1404   1.407       .  A
C1403      N1407   1.428       .  S
C1404      H1408   1.082       .  S
N1405      O1415   1.262       .  A
N1405      O1416   1.262       .  A
N1407      O1413   1.262       .  A
N1407      O1414   1.262       .  A
C1417      C1418   1.403       .  A
C1417      C1422   1.404       .  A
C1417      H1427   1.084       .  S
C1418      C1423   1.483       .  S
C1418      C1419   1.407       .  A
C1419      C1420   1.399       .  A
C1419      N1424   1.430       .  S
C1420      C1421   1.411       .  A
C1420      H1425   1.084       .  S
C1421      C1422   1.415       .  A
C1422      N1426   1.428       .  S
C1423      C1428   1.408       .  A
C1423      C1432   1.403       .  A
N1424      O1439   1.262       .  A
N1424      O1440   1.262       .  A
N1426      O1437   1.262       .  A
N1426      O1438   1.262       .  A
C1428      C1429   1.398       .  A
C1428      N1433   1.429       .  S
C1429      C1430   1.408       .  A
C1429      H1434   1.081       .  S
C1430      C1431   1.417       .  A
C1431      C1432   1.403       .  A
C1431      N1435   1.429       .  S
C1432      H1436   1.082       .  S
N1433      O1443   1.262       .  A
N1433      O1444   1.262       .  A
N1435      O1441   1.262       .  A
N1435      O1442   1.262       .  A
C1445      C1446   1.399       .  A
C1445      C1450   1.402       .  A
C1445      H1455   1.082       .  S
C1446      C1451   1.485       .  S
C1446      C1447   1.408       .  A
C1447      C1448   1.406       .  A
C1447      N1452   1.428       .  S
C1448      C1449   1.409       .  A
C1448      H1453   1.081       .  S
C1449      C1450   1.421       .  A
C1450      N1454   1.429       .  S
C1451      C1456   1.405       .  A
C1451      C1460   1.404       .  A
N1452      O1467   1.262       .  A
N1452      O1468   1.262       .  A
N1454      O1465   1.262       .  A
N1454      O1466   1.262       .  A
C1456      C1457   1.399       .  A
C1456      N1461   1.428       .  S
C1457      C1458   1.410       .  A
C1457      H1462   1.082       .  S
C1458      C1459   1.417       .  A
C1459      C1460   1.408       .  A
C1459      N1463   1.428       .  S
C1460      H1464   1.083       .  S
N1461      O1471   1.262       .  A
N1461      O1472   1.262       .  A
N1463      O1469   1.262       .  A
N1463      O1470   1.262       .  A
C1473      C1474   1.404       .  A
C1473      C1478   1.405       .  A
C1473      H1483   1.083       .  S
C1474      C1479   1.490       .  S
C1474      C1475   1.414       .  A
C1475      C1476   1.400       .  A
C1475      N1480   1.429       .  S
C1476      C1477   1.400       .  A
C1476      H1481   1.084       .  S
C1477      C1478   1.414       .  A
C1478      N1482   1.429       .  S
C1479      C1484   1.414       .  A
C1479      C1488   1.401       .  A
N1480      O1495   1.262       .  A
N1480      O1496   1.262       .  A
N1482      O1493   1.261       .  A
N1482      O1494   1.261       .  A
C1484      C1485   1.409       .  A
C1484      N1489   1.428       .  S
C1485      C1486   1.403       .  A
C1485      H1490   1.083       .  S
C1486      C1487   1.413       .  A
C1487      C1488   1.398       .  A
C1487      N1491   1.429       .  S
C1488      H1492   1.083       .  S
N1489      O1499   1.262       .  A
N1489      O1500   1.262       .  A
N1491      O1497   1.262       .  A
N1491      O1498   1.261       .  A
C1501      C1502   1.408       .  A
C1501      C1506   1.404       .  A
C1501      H1511   1.080       .  S
C1502      C1507   1.491       .  S
C1502      C1503   1.411       .  A
C1503      C1504   1.400       .  A
C1503      N1508   1.429       .  S
C1504      C1505   1.404       .  A
C1504      H1509   1.081       .  S
C1505      C1506   1.409       .  A
C1506      N1510   1.429       .  S
C1507      C1512   1.410       .  A
C1507      C1516   1.410       .  A
N1508      O1523   1.262       .  A
N1508      O1524   1.261       .  A
N1510      O1521   1.262       .  A
N1510      O1522   1.262       .  A
C1512      C1513   1.394       .  A
C1512      N1517   1.429       .  S
C1513      C1514   1.402       .  A
C1513      H1518   1.084       .  S
C1514      C1515   1.409       .  A
C1515      C1516   1.408       .  A
C1515      N1519   1.428       .  S
C1516      H1520   1.080       .  S
N1517      O1527   1.262       .  A
N1517      O1528   1.261       .  A
N1519      O1525   1.261       .  A
N1519      O1526   1.261       .  A
C1529      C1530   1.404   1_556  A
C1529      C1534   1.405       .  A
C1529      H1539   1.083       .  S
C1530      C1535   1.496       .  S
C1530      C1531   1.413       .  A
C1531      C1532   1.409       .  A
C1531      N1536   1.428       .  S
C1532      C1533   1.406   1_554  A
C1532      H1537   1.083       .  S
C1533      C1534   1.414       .  A
C1534      N1538   1.429       .  S
C1535      C1540   1.412       .  A
C1535      C1544   1.405       .  A
N1536      O1551   1.262       .  A
N1536      O1552   1.261       .  A
N1538      O1549   1.262       .  A
N1538      O1550   1.262       .  A
C1540      C1541   1.404       .  A
C1540      N1545   1.428       .  S
C1541      C1542   1.405       .  A
C1541      H1546   1.084       .  S
C1542      C1543   1.418       .  A
C1543      C1544   1.410       .  A
C1543      N1547   1.429       .  S
C1544      H1548   1.084       .  S
N1545      O1555   1.262       .  A
N1545      O1556   1.262       .  A
N1547      O1553   1.261   1_554  A
N1547      O1554   1.262       .  A
C1557      C1558   1.402       .  A
C1557      C1562   1.407       .  A
C1557      H1567   1.082       .  S
C1558      C1563   1.491   1_556  S
C1558      C1559   1.411       .  A
C1559      C1560   1.402       .  A
C1559      N1564   1.429       .  S
C1560      C1561   1.407       .  A
C1560      H1565   1.082       .  S
C1561      C1562   1.421       .  A
C1562      N1566   1.429       .  S
C1563      C1568   1.414   1_554  A
C1563      C1572   1.401       .  A
N1564      O1579   1.262   1_556  A
N1564      O1580   1.262       .  A
N1566      O1577   1.262   1_556  A
N1566      O1578   1.262       .  A
C1568      C1569   1.407       .  A
C1568      N1573   1.428       .  S
C1569      C1570   1.402   1_556  A
C1569      H1574   1.083       .  S
C1570      C1571   1.412       .  A
C1571      C1572   1.400       .  A
C1571      N1575   1.428       .  S
C1572      H1576   1.082       .  S
N1573      O1583   1.262       .  A
N1573      O1584   1.262       .  A
N1575      O1581   1.262       .  A
N1575      O1582   1.262       .  A
C1585      C1586   1.409       .  A
C1585      C1590   1.414       .  A
C1585      H1595   1.082       .  S
C1586      C1591   1.497       .  S
C1586      C1587   1.408       .  A
C1587      C1588   1.398       .  A
C1587      N1592   1.430       .  S
C1588      C1589   1.411       .  A
C1588      H1593   1.082       .  S
C1589      C1590   1.417       .  A
C1590      N1594   1.428       .  S
C1591      C1596   1.409       .  A
C1591      C1600   1.411       .  A
N1592      O1607   1.262       .  A
N1592      O1608   1.262       .  A
N1594      O1605   1.262       .  A
N1594      O1606   1.262       .  A
C1596      C1597   1.399       .  A
C1596      N1601   1.428       .  S
C1597      C1598   1.405       .  A
C1597      H1602   1.084       .  S
C1598      C1599   1.411       .  A
C1599      C1600   1.411       .  A
C1599      N1603   1.429       .  S
C1600      H1604   1.082       .  S
N1601      O1611   1.262       .  A
N1601      O1612   1.262       .  A
N1603      O1609   1.262       .  A
N1603      O1610   1.261       .  A
C1613      C1614   1.403       .  A
C1613      C1618   1.404       .  A
C1613      H1623   1.081       .  S
C1614      C1619   1.495       .  S
C1614      C1615   1.412       .  A
C1615      C1616   1.411       .  A
C1615      N1620   1.427       .  S
C1616      C1617   1.405       .  A
C1616      H1621   1.081       .  S
C1617      C1618   1.413       .  A
C1618      N1622   1.430       .  S
C1619      C1624   1.409       .  A
C1619      C1628   1.407       .  A
N1620      O1635   1.262       .  A
N1620      O1636   1.262       .  A
N1622      O1633   1.262       .  A
N1622      O1634   1.261       .  A
C1624      C1625   1.404       .  A
C1624      N1629   1.428       .  S
C1625      C1626   1.404       .  A
C1625      H1630   1.083       .  S
C1626      C1627   1.412       .  A
C1627      C1628   1.412       .  A
C1627      N1631   1.428       .  S
C1628      H1632   1.082       .  S
N1629      O1639   1.262       .  A
N1629      O1640   1.262       .  A
N1631      O1637   1.262       .  A
N1631      O1638   1.262       .  A
C1641      C1642   1.406       .  A
C1641      C1646   1.405       .  A
C1641      H1651   1.083       .  S
C1642      C1647   1.483       .  S
C1642      C1643   1.409       .  A
C1643      C1644   1.396       .  A
C1643      N1648   1.430       .  S
C1644      C1645   1.410       .  A
C1644      H1649   1.083       .  S
C1645      C1646   1.414       .  A
C1646      N1650   1.428       .  S
C1647      C1652   1.410       .  A
C1647      C1656   1.398       .  A
N1648      O1663   1.262       .  A
N1648      O1664   1.262       .  A
N1650      O1661   1.262       .  A
N1650      O1662   1.262       .  A
C1652      C1653   1.403       .  A
C1652      N1657   1.428       .  S
C1653      C1654   1.407       .  A
C1653      H1658   1.081       .  S
C1654      C1655   1.418       .  A
C1655      C1656   1.395       .  A
C1655      N1659   1.429       .  S
C1656      H1660   1.082       .  S
N1657      O1667   1.262       .  A
N1657      O1668   1.262       .  A
N1659      O1665   1.262       .  A
N1659      O1666   1.261       .  A
C1669      C1670   1.404       .  A
C1669      C1674   1.406       .  A
C1669      H1679   1.084       .  S
C1670      C1675   1.492       .  S
C1670      C1671   1.410   1_554  A
C1671      C1672   1.403       .  A
C1671      N1676   1.429       .  S
C1672      C1673   1.410   1_556  A
C1672      H1677   1.083       .  S
C1673      C1674   1.417       .  A
C1674      N1678   1.428       .  S
C1675      C1680   1.413       .  A
C1675      C1684   1.400       .  A
N1676      O1691   1.262       .  A
N1676      O1692   1.262       .  A
N1678      O1689   1.262       .  A
N1678      O1690   1.262       .  A
C1680      C1681   1.407       .  A
C1680      N1685   1.429   1_554  S
C1681      C1682   1.409       .  A
C1681      H1686   1.082       .  S
C1682      C1683   1.421       .  A
C1683      C1684   1.401       .  A
C1683      N1687   1.430       .  S
C1684      H1688   1.083       .  S
N1685      O1695   1.262       .  A
N1685      O1696   1.262       .  A
N1687      O1693   1.262       .  A
N1687      O1694   1.262       .  A
