geometry optimzed in LAMMPS
_audit_creation_date              2020-12-01 
_audit_creation_method            'lammps2cif' 
_symmetry_space_group_name_H-M    'P1' 
_symmetry_Int_Tables_number       1 
_symmetry_cell_setting            triclinic 
loop_ 
_symmetry_equiv_pos_as_xyz 
  x,y,z 
_cell_length_a                    45.99207771 
_cell_length_b                    45.84632026157629 
_cell_length_c                    30.78123419774151 
_cell_angle_alpha                 90.0628071629473 
_cell_angle_beta                  90.06003834982982 
_cell_angle_gamma                 120.23021826387159 
loop_ 
_atom_site_label 
_atom_site_type_symbol 
_atom_site_fract_x 
_atom_site_fract_y 
_atom_site_fract_z 
_atom_site_charge 
O1          O  0.53826608  0.07273396  0.06390275    -0.82300
C2          C  0.65388197  0.14922326  0.96320747     0.97100
O3          O  0.65065164  0.15441890  0.00252242    -0.71400
O4          O  0.59916045  0.16158198  0.01266819    -0.75000
Al5        Al  0.61380652  0.13410482  0.04062157     1.49000
C6          C  0.56921773  0.15425739  0.00683457     0.92400
O7          O  0.54707360  0.09260050  0.94275512    -0.81200
O8          O  0.57706960  0.03408008  0.99850763    -0.74700
Al9        Al  0.54436462  0.08334603  0.00358081     1.90100
O10         O  0.57782978  0.06967138  0.92652385    -0.73800
O11         O  0.64254160  0.08771309  0.01681614    -0.73700
O12         O  0.63619004  0.12062412  0.94601347    -0.79300
O13         O  0.63316130  0.11230369  0.07149747    -0.77500
O14         O  0.58846546  0.09863191  0.00692165    -1.13700
O15         O  0.58144612  0.12036249  0.08640369    -0.72900
C16         C  0.55473571  0.09280471  0.09445234     0.97900
C17         C  0.56010233  0.08224124  0.91498280     0.94300
Al18       Al  0.60688000  0.07933432  0.97521960     1.55600
O19         O  0.54552186  0.12474950  0.01288213    -0.77500
C20         C  0.65113514  0.10207872  0.05372561     0.98400
C21         C  0.54520283  0.02069821  0.99507986     0.93300
O22         O  0.53186977  0.03868432  0.99306518    -0.82800
O23         O  0.44075201  0.07594340  0.53375612    -0.82300
C24         C  0.58157250  0.14206245  0.49401796     0.97100
O25         O  0.56757141  0.15132481  0.52151801    -0.71400
O26         O  0.52037220  0.15672995  0.48206182    -0.75000
Al27       Al  0.52099476  0.13489509  0.53328783     1.49000
C28         C  0.49351796  0.15030630  0.46311947     0.92400
O29         O  0.48324133  0.08081261  0.42552415    -0.81200
O30         O  0.49282973  0.03579040  0.52713811    -0.74700
Al31       Al  0.46413951  0.07812731  0.47996978     1.90100
O32         O  0.51623641  0.06088382  0.44303264    -0.73800
O33         O  0.54480930  0.08606181  0.56298880    -0.73700
O34         O  0.56638671  0.11245059  0.47962427    -0.79300
O35         O  0.52312534  0.11640581  0.58631645    -0.77500
O36         O  0.50443479  0.09594122  0.50589232    -1.13700
O37         O  0.47842355  0.12804143  0.55172725    -0.72900
C38         C  0.44859398  0.10339589  0.55380239     0.97900
C39         C  0.50189973  0.06931112  0.41435149     0.94300
Al40       Al  0.52815815  0.07524125  0.50350431     1.55600
O41         O  0.46744632  0.12125980  0.46592309    -0.77500
C42         C  0.53764903  0.09986592  0.59373248     0.98400
C43         C  0.46844179  0.01730379  0.50317029     0.93300
O44         O  0.45305071  0.03025160  0.48406488    -0.82800
O45         O  0.53510502  0.43157659  0.05924943    -0.82300
C46         C  0.49423295  0.31236098  0.96401207     0.97100
O47         O  0.50721250  0.31941397  0.00114645    -0.71400
O48         O  0.56538524  0.37243239  0.00735612    -0.75000
Al49       Al  0.52378430  0.35681074  0.03764729     1.49000
C50         C  0.58701395  0.40272267  0.00016680     0.92400
O51         O  0.54488132  0.42013625  0.93812656    -0.81200
O52         O  0.45779699  0.39119165  0.99752478    -0.74700
Al53       Al  0.53935879  0.42459131  0.99892342     1.90100
O54         O  0.49076145  0.38783771  0.92381113    -0.73800
O55         O  0.44650696  0.32646063  0.01964028    -0.73700
O56         O  0.48204353  0.32882423  0.94680442    -0.79300
O57         O  0.48352721  0.33630467  0.07071665    -0.77500
O58         O  0.51132378  0.38026883  0.00417733    -1.13700
O59         O  0.54277399  0.39047132  0.08212284    -0.72900
C60         C  0.53959204  0.41586497  0.08995835     0.97900
C61         C  0.52083433  0.40657199  0.91104179     0.94300
Al62       Al  0.47235871  0.36036263  0.97493082     1.55600
O63         O  0.58030756  0.42546103  0.00819123    -0.77500
C64         C  0.45422542  0.31828304  0.05554946     0.98400
C65         C  0.47593106  0.42304837  0.99242846     0.93300
O66         O  0.50704334  0.43645403  0.98777641    -0.82800
O67         O  0.63520344  0.52566584  0.52947493    -0.82300
C68         C  0.55927816  0.38489749  0.48535705     0.97100
O69         O  0.58385760  0.39900065  0.51114438    -0.71400
O70         O  0.63540514  0.44743039  0.47094706    -0.75000
Al71       Al  0.61438610  0.44557564  0.52399456     1.49000
C72         C  0.65665346  0.47533102  0.45473030     0.92400
O73         O  0.59649171  0.48507305  0.42034089    -0.81200
O74         O  0.54428831  0.47429858  0.52436173    -0.74700
Al75       Al  0.61367730  0.50345857  0.47495797     1.90100
O76         O  0.54369607  0.45087842  0.43885406    -0.73800
O77         O  0.54267827  0.42219393  0.55843279    -0.73700
O78         O  0.54431747  0.40004612  0.47358398    -0.79300
O79         O  0.59537629  0.44285204  0.57845598    -0.77500
O80         O  0.59149260  0.46245023  0.49950540    -1.13700
O81         O  0.65048114  0.48804746  0.54324861    -0.72900
C82         C  0.65459841  0.51726394  0.54868747     0.97900
C83         C  0.56607969  0.46599129  0.40978773     0.94300
Al84       Al  0.54702191  0.43870972  0.49895671     1.55600
O85         O  0.65355897  0.50113931  0.45938533    -0.77500
C86         C  0.56484456  0.43065660  0.58798723     0.98400
C87         C  0.54898221  0.49818971  0.50033994     0.93300
O88         O  0.57699355  0.51418586  0.48068412    -0.82800
O89         O  0.88688670  0.33027047  0.52875161    -0.82300
C90         C  0.82646696  0.41156973  0.49422336     0.97100
O91         O  0.81505994  0.38594899  0.51842129    -0.71400
O92         O  0.80975332  0.33469420  0.47496668    -0.75000
Al93       Al  0.82974661  0.35393696  0.52831530     1.49000
C94         C  0.81539121  0.31367791  0.45612301     0.92400
O95         O  0.88645984  0.37354158  0.42347811    -0.81200
O96         O  0.92905096  0.42221050  0.52971712    -0.74700
Al97       Al  0.88709105  0.35445571  0.47647245     1.90100
O98         O  0.90680788  0.42620627  0.44485044    -0.73800
O99         O  0.87959348  0.42454469  0.56530429    -0.73700
O100        O  0.85637541  0.42566963  0.48172859    -0.79300
O101        O  0.84671266  0.37139869  0.58326489    -0.77500
O102        O  0.86949583  0.37674161  0.50361941    -1.13700
O103        O  0.83471818  0.31626987  0.54404628    -0.72900
C104        C  0.85855226  0.31002217  0.54642179     0.97900
C105        C  0.89865102  0.40434571  0.41469119     0.94300
Al106      Al  0.89148599  0.42136785  0.50538721     1.55600
O107        O  0.84390975  0.31576609  0.45932217    -0.77500
C108        C  0.86510120  0.40183396  0.59404840     0.98400
C109        C  0.94789020  0.41827934  0.50428369     0.93300
O110        O  0.93529805  0.39058889  0.48327735    -0.82800
O111        O  0.88701122  0.42783257  0.06481254    -0.82300
C112        C  0.81943394  0.48170857  0.97219937     0.97100
O113        O  0.81255975  0.46857278  0.00931320    -0.71400
O114        O  0.79962842  0.40698865  0.01317776    -0.75000
Al115      Al  0.82947144  0.44724521  0.04452095     1.49000
C116        C  0.80449356  0.38259572  0.00798903     0.92400
O117        O  0.86603855  0.42122231  0.94367556    -0.81200
O118        O  0.93116652  0.50609463  0.00482045    -0.74700
Al119      Al  0.87598543  0.42523768  0.00459149     1.90100
O120        O  0.89349572  0.47603997  0.93090088    -0.73800
O121        O  0.88168278  0.52339841  0.02773562    -0.73700
O122        O  0.84720139  0.49025096  0.95420838    -0.79300
O123        O  0.85392695  0.48654486  0.07873938    -0.77500
O124        O  0.86432730  0.45654029  0.01074503    -1.13700
O125        O  0.84006949  0.42400309  0.08799315    -0.72900
C126        C  0.86715238  0.42398987  0.09562693     0.97900
C127        C  0.87929289  0.44580460  0.91726690     0.94300
Al128      Al  0.88686676  0.49583323  0.98234680     1.55600
O129        O  0.83318787  0.38645474  0.01390967    -0.77500
C130        C  0.86577997  0.51592876  0.06366157     0.98400
C131        C  0.94181510  0.48552242  0.99866003     0.93300
O132        O  0.92135728  0.45468454  0.99364313    -0.82800
O133        O  0.56887680  0.77376842  0.40106072    -0.82300
C134        C  0.49004510  0.80770877  0.29689279     0.97100
O135        O  0.48462569  0.79824805  0.33566629    -0.71400
O136        O  0.48115051  0.74093141  0.34355949    -0.75000
Al137      Al  0.50550410  0.78282163  0.37376296     1.49000
C138        C  0.49036488  0.71958660  0.33830941     0.92400
O139        O  0.55273817  0.76256896  0.27912654    -0.81200
O140        O  0.60633671  0.85159616  0.33530462    -0.74700
Al141      Al  0.55996378  0.76897417  0.34027674     1.90100
O142        O  0.57217469  0.81603621  0.26311232    -0.73800
O143        O  0.55053860  0.85970529  0.35365595    -0.73700
O144        O  0.51917111  0.82070424  0.28079076    -0.79300
O145        O  0.52434574  0.82348700  0.40618046    -0.77500
O146        O  0.54241999  0.79585585  0.34219470    -1.13700
O147        O  0.51887259  0.76435027  0.41968172    -0.72900
C148        C  0.54695437  0.76750895  0.42990592     0.97900
C149        C  0.56324407  0.78621583  0.25155818     0.94300
Al150      Al  0.56071242  0.83409560  0.31136470     1.55600
O151        O  0.51983763  0.72728279  0.34799545    -0.77500
C152        C  0.53491420  0.85231451  0.38969674     0.98400
C153        C  0.62092229  0.83416583  0.33294545     0.93300
O154        O  0.60396780  0.80266955  0.33165344    -0.82800
O155        O  0.55287453  0.66422223  0.86377436    -0.82300
C156        C  0.50213391  0.75426543  0.83997980     0.97100
O157        O  0.49273409  0.73152208  0.86843835    -0.71400
O158        O  0.47544997  0.67515525  0.82820935    -0.75000
Al159      Al  0.50372518  0.69660707  0.87604123     1.49000
C160        C  0.47655511  0.65228732  0.80689216     0.92400
O161        O  0.54561290  0.70548486  0.75970093    -0.81200
O162        O  0.60454581  0.75713963  0.85588039    -0.74700
Al163      Al  0.54976517  0.68723847  0.81240551     1.90100
O164        O  0.57344396  0.75914012  0.77839290    -0.73800
O165        O  0.56233889  0.76733630  0.90052347    -0.73700
O166        O  0.53053913  0.76586907  0.82285065    -0.79300
O167        O  0.52894511  0.71636804  0.92617986    -0.77500
O168        O  0.53993146  0.71439196  0.84296566    -1.13700
O169        O  0.50563152  0.65706034  0.89121533    -0.72900
C170        C  0.52703277  0.64752236  0.88781491     0.97900
C171        C  0.56034183  0.73632411  0.74958815     0.94300
Al172      Al  0.56583138  0.75898479  0.83984561     1.55600
O173        O  0.50371692  0.65171628  0.80385135    -0.77500
C174        C  0.55031722  0.74702586  0.93209210     0.98400
C175        C  0.61729490  0.74699359  0.82800474     0.93300
O176        O  0.59878505  0.71841857  0.81028026    -0.82800
O177        O  0.10093662  0.40147682  0.86267631    -0.82300
C178        C  0.24329608  0.46807044  0.83530997     0.97100
O179        O  0.22803057  0.47609160  0.86250785    -0.71400
O180        O  0.18357261  0.48393500  0.82011816    -0.75000
Al181      Al  0.18100633  0.45977859  0.87022226     1.49000
C182        C  0.15778708  0.47870696  0.79944155     0.92400
O183        O  0.14884498  0.41044068  0.75827448    -0.81200
O184        O  0.15252198  0.36158061  0.85940776    -0.74700
Al185      Al  0.12697681  0.40568702  0.81091484     1.90100
O186        O  0.18043045  0.38926377  0.77766729    -0.73800
O187        O  0.20265534  0.40952728  0.89997667    -0.73700
O188        O  0.22883592  0.43907522  0.81897653    -0.79300
O189        O  0.17942215  0.43848153  0.92215119    -0.77500
O190        O  0.16576589  0.42217783  0.84021842    -1.13700
O191        O  0.13772968  0.45273342  0.88538128    -0.72900
C192        C  0.10802850  0.42783504  0.88483767     0.97900
C193        C  0.16783155  0.39907838  0.74827886     0.94300
Al194      Al  0.18924771  0.40127967  0.83914347     1.55600
O195        O  0.13152225  0.44964904  0.79878019    -0.77500
C196        C  0.19245886  0.42072304  0.93057790     0.98400
C197        C  0.12942974  0.34372294  0.83348344     0.93300
O198        O  0.11534498  0.35735805  0.81276867    -0.82800
O199        O  0.20494376  0.41223736  0.40040883    -0.82300
C200        C  0.31878658  0.48596596  0.29918733     0.97100
O201        O  0.29735063  0.49040834  0.31866812    -0.71400
O202        O  0.24420510  0.48142497  0.35956797    -0.75000
Al203      Al  0.27605159  0.46645844  0.36932763     1.49000
C204        C  0.21963063  0.47087972  0.33364748     0.92400
O205        O  0.20709673  0.39370674  0.27811559    -0.81200
O206        O  0.24323842  0.36490642  0.31065794    -0.74700
Al207      Al  0.21010998  0.40489636  0.33978252     1.90100
O208        O  0.26035640  0.41821765  0.25802408    -0.73800
O209        O  0.30015857  0.40957545  0.36227635    -0.73700
O210        O  0.31674378  0.45740689  0.29915805    -0.79300
O211        O  0.31302776  0.46026393  0.38561994    -0.77500
O212        O  0.25461654  0.42821674  0.34015650    -1.13700
O213        O  0.25673609  0.44601112  0.42221368    -0.72900
C214        C  0.22633061  0.42570736  0.43074306     0.97900
C215        C  0.22961544  0.40578491  0.24883637     0.94300
Al216      Al  0.27815915  0.41337902  0.31039132     1.55600
O217        O  0.20531260  0.44096616  0.32057912    -0.77500
C218        C  0.31892593  0.43600406  0.38479450     0.98400
C219        C  0.21544972  0.34980942  0.33083725     0.93300
O220        O  0.20995507  0.36610723  0.35897556    -0.82800
O221        O  0.20572252  0.75929345  0.39959254    -0.82300
C222        C  0.15836762  0.64074350  0.29961458     0.97100
O223        O  0.17247655  0.64725138  0.33599302    -0.71400
O224        O  0.23225011  0.69831605  0.34364069    -0.75000
Al225      Al  0.19069137  0.68394336  0.37376278     1.49000
C226        C  0.25575365  0.72843488  0.34112970     0.92400
O227        O  0.21621692  0.75050174  0.27798438    -0.81200
O228        O  0.12953524  0.72516435  0.33453894    -0.74700
Al229      Al  0.21035484  0.75375470  0.33898124     1.90100
O230        O  0.16209734  0.71994867  0.26219568    -0.73800
O231        O  0.11400102  0.65958190  0.35641057    -0.73700
O232        O  0.14780784  0.65891886  0.28341846    -0.79300
O233        O  0.15037975  0.66476259  0.40638361    -0.77500
O234        O  0.18030462  0.70974452  0.34191391    -1.13700
O235        O  0.21094817  0.71617851  0.41972465    -0.72900
C236        C  0.20946222  0.74229578  0.42926694     0.97900
C237        C  0.19249117  0.73784353  0.25025695     0.94300
Al238      Al  0.14156371  0.69252194  0.31219142     1.55600
O239        O  0.25008586  0.75192420  0.34893703    -0.77500
C240        C  0.12065990  0.64980461  0.39175676     0.98400
C241        C  0.14922376  0.75680618  0.33032145     0.93300
O242        O  0.18027088  0.76861737  0.32803114    -0.82800
O243        O  0.30186890  0.85640372  0.86922523    -0.82300
C244        C  0.23065105  0.71577235  0.82469098     0.97100
O245        O  0.25583287  0.73063462  0.84946521    -0.71400
O246        O  0.30742632  0.78083140  0.81193697    -0.75000
Al247      Al  0.28476362  0.77723007  0.86424522     1.49000
C248        C  0.32805286  0.80922908  0.79640696     0.92400
O249        O  0.26513008  0.81443865  0.76018274    -0.81200
O250        O  0.21289001  0.80304385  0.86505709    -0.74700
Al251      Al  0.28160161  0.83373727  0.81478764     1.90100
O252        O  0.21251376  0.77988401  0.77938665    -0.73800
O253        O  0.21199841  0.75110985  0.89791673    -0.73700
O254        O  0.21464568  0.73009207  0.81395120    -0.79300
O255        O  0.26465353  0.77271711  0.91836556    -0.77500
O256        O  0.26077018  0.79275802  0.83956745    -1.13700
O257        O  0.31901790  0.82042065  0.88481320    -0.72900
C258        C  0.32181144  0.84921754  0.88933900     0.97900
C259        C  0.23476296  0.79444065  0.75008353     0.94300
Al260      Al  0.21632613  0.76801252  0.83920323     1.55600
O261        O  0.32295640  0.83383843  0.80021783    -0.77500
C262        C  0.23397020  0.75956635  0.92750559     0.98400
C263        C  0.21609347  0.82625626  0.84079210     0.93300
O264        O  0.24349664  0.84253335  0.81989988    -0.82800
O265        O  0.22710076  0.09624488  0.73229033    -0.82300
C266        C  0.14939035  0.13680022  0.63520477     0.97100
O267        O  0.14299360  0.12285461  0.67165239    -0.71400
O268        O  0.13852981  0.06500978  0.67779489    -0.75000
Al269      Al  0.16387283  0.10678350  0.70851028     1.49000
C270        C  0.14732406  0.04357334  0.67051292     0.92400
O271        O  0.20952630  0.08701146  0.61074265    -0.81200
O272        O  0.26512516  0.17428723  0.66835092    -0.74700
Al273      Al  0.21727429  0.09221766  0.67178882     1.90100
O274        O  0.22796440  0.14071225  0.59599302    -0.73800
O275        O  0.21226246  0.18449397  0.69165583    -0.73700
O276        O  0.17834420  0.14964258  0.61878261    -0.79300
O277        O  0.18300931  0.14725901  0.74182921    -0.77500
O278        O  0.20042818  0.11984406  0.67587551    -1.13700
O279        O  0.17793643  0.08795065  0.75350829    -0.72900
C280        C  0.20635973  0.09130022  0.76227554     0.97900
C281        C  0.21861549  0.11090822  0.58378424     0.94300
Al282      Al  0.21953075  0.15902419  0.64675704     1.55600
O283        O  0.17680038  0.05062426  0.67909223    -0.77500
C284        C  0.19621227  0.17702057  0.72731099     0.98400
C285        C  0.27888153  0.15632016  0.66434868     0.93300
O286        O  0.26136819  0.12496805  0.66259855    -0.82800
O287        O  0.22525073  0.99956257  0.19863978    -0.82300
C288        C  0.15781864  0.07316872  0.16214188     0.97100
O289        O  0.14701706  0.04729825  0.18571015    -0.71400
O290        O  0.14356234  0.99562435  0.14609628    -0.75000
Al291      Al  0.16407789  0.01780488  0.19833828     1.49000
C292        C  0.15005505  0.97451790  0.12948294     0.92400
O293        O  0.21798409  0.03725169  0.09217593    -0.81200
O294        O  0.26407959  0.08968914  0.19546347    -0.74700
Al295      Al  0.22191365  0.02031199  0.14549257     1.90100
O296        O  0.23807551  0.09023122  0.11208697    -0.73800
O297        O  0.21432666  0.09004705  0.23345743    -0.73700
O298        O  0.18814468  0.08913544  0.15144301    -0.79300
O299        O  0.18026722  0.03736486  0.25249272    -0.77500
O300        O  0.20354519  0.04171732  0.17276124    -1.13700
O301        O  0.17265872  0.98294410  0.21712633    -0.72900
C302        C  0.19843866  0.97969142  0.21957547     0.97900
C303        C  0.22984751  0.06794638  0.08244178     0.94300
Al304      Al  0.22460960  0.08640274  0.17325110     1.55600
O305        O  0.17955324  0.97901522  0.13199294    -0.77500
C306        C  0.19870957  0.06790390  0.26243037     0.98400
C307        C  0.28252533  0.08574707  0.16928170     0.93300
O308        O  0.26962833  0.05804184  0.14840232    -0.82800
O309        O  0.87500026  0.72867943  0.74570997    -0.82300
C310        C  0.98911934  0.80673956  0.64130753     0.97100
O311        O  0.98588307  0.81005504  0.68108376    -0.71400
O312        O  0.93423333  0.81767867  0.68942764    -0.75000
Al313      Al  0.94838183  0.79007829  0.71797434     1.49000
C314        C  0.90403051  0.81006964  0.68444922     0.92400
O315        O  0.87774769  0.74911907  0.62494403    -0.81200
O316        O  0.91017523  0.69055919  0.66913222    -0.74700
Al317      Al  0.87814012  0.73963716  0.68501563     1.90100
O318        O  0.90988899  0.72946120  0.60151055    -0.73800
O319        O  0.97547137  0.74341728  0.69034917    -0.73700
O320        O  0.96955606  0.77957065  0.62184781    -0.79300
O321        O  0.96583212  0.76618728  0.74744336    -0.77500
O322        O  0.92215572  0.75499732  0.68423663    -1.13700
O323        O  0.91681122  0.77820493  0.76433751    -0.72900
C324        C  0.89169659  0.75023660  0.77489776     0.97900
C325        C  0.89007652  0.74048807  0.59424557     0.94300
Al326      Al  0.93981812  0.73691336  0.64912976     1.55600
O327        O  0.88072301  0.78159514  0.69642893    -0.77500
C328        C  0.98377841  0.75651135  0.72819329     0.98400
C329        C  0.87824248  0.67723527  0.66840585     0.93300
O330        O  0.86500952  0.69516446  0.67247979    -0.82800
O331        O  0.77549231  0.74438193  0.20732383    -0.82300
C332        C  0.91680164  0.80149827  0.17025056     0.98900
O333        O  0.90304572  0.81454641  0.19202092    -0.71400
O334        O  0.85671524  0.82015754  0.15063436    -0.75000
Al335      Al  0.85711456  0.80086937  0.20440724     1.49000
C336        C  0.82966116  0.81452697  0.13304660     0.92400
O337        O  0.81753588  0.74236855  0.10104433    -0.81200
O338        O  0.82158351  0.69918685  0.20746135    -0.74700
Al339      Al  0.79834967  0.74293622  0.15448653     1.90100
O340        O  0.84908996  0.72155385  0.12338833    -0.73800
O341        O  0.87397076  0.74818476  0.24393937    -0.73700
O342        O  0.90058367  0.77073247  0.16098429    -0.79300
O343        O  0.85929433  0.78560674  0.25989816    -0.77500
O344        O  0.83855202  0.76013390  0.18120170    -1.13700
O345        O  0.81518053  0.79663406  0.22254003    -0.72900
C346        C  0.78494866  0.77280451  0.22602398     0.97900
C347        C  0.83524693  0.72909784  0.09289504     0.94300
Al348      Al  0.85959707  0.73662129  0.18387766     1.55600
O349        O  0.80327998  0.78597659  0.13717637    -0.77500
C350        C  0.86876954  0.76545876  0.27185279     0.98400
C351        C  0.79880234  0.68099144  0.18136449     0.93300
O352        O  0.78455412  0.69442684  0.16087095    -0.82800
O353        O  0.87199326  0.09139103  0.72861047    -0.82300
C354        C  0.83740461  0.97601961  0.63486547     0.97100
O355        O  0.86085174  0.99745829  0.65816625    -0.71400
O356        O  0.90142696  0.05200160  0.70041619    -0.75000
Al357      Al  0.85368150  0.01929367  0.70458802     1.49000
C358        C  0.91651090  0.07350959  0.67076555     0.92400
O359        O  0.85566123  0.08618772  0.60369877    -0.81200
O360        O  0.79017207  0.05081693  0.63172944    -0.74700
Al361      Al  0.86158061  0.08440498  0.66668711     1.90100
O362        O  0.82917221  0.03254190  0.58600210    -0.73800
O363        O  0.77442669  0.99488972  0.68460233    -0.73700
O364        O  0.81060408  0.97715648  0.62935166    -0.79300
O365        O  0.80914084  0.98149510  0.71637196    -0.77500
O366        O  0.83957348  0.03989826  0.66933104    -1.13700
O367        O  0.84785263  0.03952771  0.75346304    -0.72900
C368        C  0.86048862  0.07065187  0.76003103     0.97900
C369        C  0.84592331  0.06305024  0.57507326     0.94300
Al370      Al  0.80362859  0.01576587  0.63591595     1.55600
O371        O  0.90212203  0.08688903  0.65160487    -0.77500
C372        C  0.77948692  0.97579473  0.70952234     0.98400
C373        C  0.80112488  0.07860991  0.65218910     0.93300
O374        O  0.82285608  0.08588759  0.68115920    -0.82800
O375        O  0.96922181  0.19018140  0.18384754    -0.82300
C376        C  0.88649682  0.04727180  0.16072624     0.97100
O377        O  0.91112742  0.06257865  0.18616127    -0.71400
O378        O  0.96236781  0.10479451  0.14047839    -0.75000
Al379      Al  0.94380646  0.10931640  0.19230929     1.49000
C380        C  0.98289176  0.12979506  0.11842622     0.92400
O381        O  0.92327539  0.14128353  0.08224729    -0.81200
O382        O  0.87634914  0.14162511  0.18724986    -0.74700
Al383      Al  0.94412112  0.16361955  0.13383424     1.90100
O384        O  0.87124889  0.11204341  0.10630262    -0.73800
O385        O  0.87392300  0.09012586  0.22668538    -0.73700
O386        O  0.87238852  0.06243481  0.14544656    -0.79300
O387        O  0.92684619  0.11211839  0.24626224    -0.77500
O388        O  0.92147993  0.12549359  0.16443612    -1.13700
O389        O  0.98218686  0.15232065  0.20515714    -0.72900
C390        C  0.98838160  0.18251359  0.20475894     0.97900
C391        C  0.89203265  0.12427931  0.07518350     0.94300
Al392      Al  0.87687952  0.10333042  0.16641896     1.55600
O393        O  0.98137342  0.15669762  0.11805073    -0.77500
C394        C  0.89618948  0.09859691  0.25598810     0.98400
C395        C  0.88273533  0.16502731  0.16103324     0.93300
O396        O  0.91005359  0.17768056  0.13958663    -0.82800
C397        C  0.86217085  0.08182860  0.80555378    -0.20300
C398        C  0.86198151  0.11155396  0.81703943     0.35900
C399        C  0.86249456  0.11965126  0.86130618    -0.26300
C400        C  0.86318195  0.09861322  0.89397199     0.02300
C401        C  0.86332962  0.06895344  0.88239420     0.27100
C402        C  0.86247562  0.06076819  0.83850017    -0.25400
N403        N  0.86080711  0.13307134  0.78401503    -0.82800
H404        H  0.86246067  0.14246082  0.87046148     0.12900
C405        C  0.86657351  0.10879526  0.94020198     0.02300
N406        N  0.86513687  0.04762718  0.91529252    -0.81400
H407        H  0.86272093  0.03795152  0.82997912     0.17800
C408        C  0.84356244  0.08622304  0.97074201    -0.26200
C409        C  0.85042946  0.09108518  0.01549779     0.35800
C410        C  0.88041624  0.11973409  0.02967863    -0.20300
C411        C  0.90153841  0.14392523  0.99919340    -0.25500
C412        C  0.89526423  0.13853095  0.95459230     0.27200
H413        H  0.82133531  0.06357864  0.95939932     0.12900
N414        N  0.82810290  0.06619227  0.04606745    -0.82800
H415        H  0.92407232  0.16645655  0.01011237     0.17800
N416        N  0.91889596  0.16221073  0.92389947    -0.81400
H417        H  0.80706204  0.04692617  0.03016698     0.33400
H418        H  0.84090211  0.05496253  0.05965968     0.37900
H419        H  0.93845670  0.18293747  0.93992300     0.33400
H420        H  0.92985974  0.15020828  0.90741442     0.30100
H421        H  0.86463218  0.02657197  0.90132794     0.33400
H422        H  0.88841114  0.06140149  0.93090409     0.30100
H423        H  0.83767578  0.11946903  0.76801388     0.37900
H424        H  0.86123935  0.15407229  0.79802193     0.33400
C425        C  0.85230391  0.07029717  0.52789503    -0.20300
C426        C  0.86998675  0.10330976  0.51052912     0.35900
C427        C  0.87425563  0.10749174  0.46521039    -0.26300
C428        C  0.86138474  0.07947900  0.43735653     0.02300
C429        C  0.84343597  0.04672060  0.45431923     0.27100
C430        C  0.83907055  0.04245729  0.49920912    -0.25400
N431        N  0.88348558  0.13234183  0.53854367    -0.82800
H432        H  0.88832818  0.13262186  0.45153738     0.12900
C433        C  0.86954013  0.08441491  0.39080395     0.02300
N434        N  0.83046683  0.01790168  0.42586879    -0.81400
H435        H  0.82523680  0.01693605  0.51167253     0.17800
C436        C  0.89783763  0.08336036  0.37658050    -0.26200
C437        C  0.90650950  0.08727324  0.33263067     0.35800
C438        C  0.88655689  0.09249827  0.30220814    -0.20300
C439        C  0.85762217  0.09264291  0.31644179    -0.25500
C440        C  0.84887759  0.08860425  0.36068346     0.27200
H441        H  0.91321280  0.07932418  0.39979372     0.12900
N442        N  0.93521861  0.08522300  0.31899251    -0.82800
H443        H  0.84218571  0.09650045  0.29316852     0.17800
N444        N  0.81947543  0.08915547  0.37524506    -0.81400
H445        H  0.93156997  0.06167970  0.32824930     0.33400
H446        H  0.95633999  0.10383193  0.33551111     0.37900
H447        H  0.80727080  0.09290267  0.34901137     0.33400
H448        H  0.80267035  0.06533167  0.38783495     0.30100
H449        H  0.81839081  0.99545960  0.44365091     0.33400
H450        H  0.81207826  0.01815285  0.40617124     0.30100
H451        H  0.90293127  0.13271264  0.55662211     0.37900
H452        H  0.89444748  0.15457299  0.52028962     0.33400
C453        C  0.82885509  0.84338843  0.11337992    -0.20300
C454        C  0.80385367  0.85104166  0.12565771     0.35900
C455        C  0.81079219  0.88452934  0.12233009    -0.26300
C456        C  0.84205860  0.91003692  0.10703771     0.02300
C457        C  0.86498604  0.90143191  0.08936286     0.27100
C458        C  0.85810989  0.86806512  0.09263665    -0.25400
N459        N  0.77332266  0.82584990  0.14596333    -0.82800
H460        H  0.79318198  0.89131581  0.13562386     0.12900
C461        C  0.85341726  0.94549554  0.11868374     0.02300
N462        N  0.89632651  0.92722612  0.07146065    -0.81400
H463        H  0.87706591  0.86199445  0.08272769     0.17800
C464        C  0.87980929  0.96140454  0.14865292    -0.26200
C465        C  0.89042847  0.99403987  0.16396178     0.35800
C466        C  0.87459861  0.01165213  0.14817558    -0.20300
C467        C  0.84788269  0.99540047  0.11823324    -0.25500
C468        C  0.83710890  0.96245289  0.10341113     0.27200
H469        H  0.89167363  0.94779748  0.16105362     0.12900
N470        N  0.91708708  0.00902465  0.19557279    -0.82800
H471        H  0.83542946  0.00845219  0.10606725     0.17800
N472        N  0.80986645  0.94620780  0.07286464    -0.81400
H473        H  0.92690460  0.99326926  0.20194572     0.33400
H474        H  0.90651720  0.01099165  0.22471845     0.37900
H475        H  0.80048837  0.96209951  0.06488334     0.33400
H476        H  0.81962060  0.94223937  0.04425120     0.30100
H477        H  0.91072557  0.91685790  0.06061353     0.33400
H478        H  0.89067656  0.93695335  0.04409144     0.30100
H479        H  0.75954071  0.80737064  0.12261109     0.37900
H480        H  0.75844202  0.83608378  0.15519961     0.33400
C481        C  0.89547158  0.83374726  0.66371169    -0.20300
C482        C  0.86557236  0.82169507  0.63917375     0.35900
C483        C  0.85737760  0.84450772  0.62108049    -0.26300
C484        C  0.87784028  0.87922011  0.62796293     0.02300
C485        C  0.90833176  0.89156371  0.65128372     0.27100
C486        C  0.91731465  0.86862493  0.66785810    -0.25400
N487        N  0.84321985  0.78628355  0.63260749    -0.82800
H488        H  0.83388510  0.83494355  0.60343356     0.12900
C489        C  0.86361801  0.90110710  0.61840487     0.02300
N490        N  0.92915746  0.92707939  0.65987642    -0.81400
H491        H  0.94048760  0.87791992  0.68612092     0.17800
C492        C  0.83382205  0.89344913  0.64002520    -0.26200
C493        C  0.82257587  0.91652405  0.64138280     0.35800
C494        C  0.84077597  0.94756834  0.61989603    -0.20300
C495        C  0.86908411  0.95422351  0.59511897    -0.25500
C496        C  0.88058175  0.93110768  0.59366161     0.27200
H497        H  0.82067459  0.87058804  0.65919635     0.12900
N498        N  0.79471244  0.90976732  0.66853650    -0.82800
H499        H  0.88354597  0.97842986  0.57910753     0.17800
N500        N  0.90960899  0.93913765  0.56766011    -0.81400
H501        H  0.80054471  0.90658683  0.70038660     0.33400
H502        H  0.77411390  0.88690989  0.65833475     0.37900
H503        H  0.93031403  0.96022609  0.58147569     0.33400
H504        H  0.91482402  0.91946051  0.56759384     0.30100
H505        H  0.91559594  0.93432306  0.68002868     0.33400
H506        H  0.95073363  0.93191922  0.67715128     0.30100
H507        H  0.81963119  0.78000873  0.64505258     0.37900
H508        H  0.84062279  0.78155675  0.59917781     0.33400
C509        C  0.88231323  0.74341628  0.82178076    -0.20300
C510        C  0.90204397  0.76687870  0.85460617     0.35900
C511        C  0.89277303  0.75970571  0.89829362    -0.26300
C512        C  0.86450952  0.72931114  0.91076981     0.02300
C513        C  0.84483554  0.70554025  0.87851598     0.27100
C514        C  0.85383613  0.71288126  0.83437211    -0.25400
N515        N  0.93175206  0.79812120  0.84410982    -0.82800
H516        H  0.90775806  0.77830753  0.92276652     0.12900
C517        C  0.85531765  0.72387911  0.95763475     0.02300
N518        N  0.81597530  0.67398631  0.89076442    -0.81400
H519        H  0.83863591  0.69455129  0.80979218     0.17800
C520        C  0.82388169  0.71877732  0.97055546    -0.26200
C521        C  0.81595615  0.71830344  0.01471585     0.35800
C522        C  0.84010377  0.72315652  0.04677066    -0.20300
C523        C  0.87052751  0.72569106  0.03390795    -0.25500
C524        C  0.87864866  0.72668971  0.98966200     0.27200
H525        H  0.80596338  0.71656689  0.94602121     0.12900
N526        N  0.78368019  0.71349879  0.02706803    -0.82800
H527        H  0.88867908  0.72849390  0.05837361     0.17800
N528        N  0.91087997  0.73155769  0.97706482    -0.81400
H529        H  0.76902705  0.71061544  0.99963132     0.33400
H530        H  0.77107236  0.69084371  0.04433677     0.37900
H531        H  0.92533426  0.73375339  0.00444237     0.33400
H532        H  0.90667120  0.70986129  0.96044178     0.30100
H533        H  0.80419372  0.65929302  0.86327727     0.33400
H534        H  0.82456861  0.66066402  0.90915371     0.30100
H535        H  0.92884643  0.81790744  0.85588694     0.37900
H536        H  0.95214579  0.79888348  0.86022729     0.33400
C537        C  0.87240021  0.76189169  0.31948862    -0.20300
C538        C  0.88544685  0.74229242  0.33698355     0.35900
C539        C  0.88572544  0.73841491  0.38242514    -0.26300
C540        C  0.87313901  0.75349796  0.41080153     0.02300
C541        C  0.86042711  0.77325760  0.39339951     0.27100
C542        C  0.86082606  0.77771914  0.34831763    -0.25400
N543        N  0.89854206  0.72658602  0.30889847    -0.82800
H544        H  0.89619398  0.72384368  0.39588293     0.12900
C545        C  0.87468800  0.74958438  0.45867519     0.02300
N546        N  0.84664749  0.78832508  0.42154384    -0.81400
H547        H  0.85136035  0.79332333  0.33568534     0.17800
C548        C  0.89081369  0.77856506  0.48494748    -0.26200
C549        C  0.89460968  0.77634916  0.52976000     0.35800
C550        C  0.88244427  0.74418485  0.54886175    -0.20300
C551        C  0.86565273  0.71513498  0.52294472    -0.25500
C552        C  0.86112166  0.71746419  0.47813062     0.27200
H553        H  0.90151541  0.80333507  0.47027652     0.12900
N554        N  0.91254416  0.80734718  0.55396716    -0.82800
H555        H  0.85623435  0.69056244  0.53775186     0.17800
N556        N  0.84290320  0.68741591  0.45229114    -0.81400
H557        H  0.89822395  0.81922660  0.55311567     0.33400
H558        H  0.91548634  0.80329752  0.58658593     0.37900
H559        H  0.83460865  0.66587763  0.47152887     0.33400
H560        H  0.82134551  0.68692476  0.44045768     0.30100
H561        H  0.83842069  0.80218332  0.40361955     0.33400
H562        H  0.82535094  0.76874155  0.43647251     0.30100
H563        H  0.92002889  0.74584935  0.29388485     0.37900
H564        H  0.90643698  0.71251453  0.32696127     0.33400
C565        C  0.01157642  0.12840234  0.09982112    -0.20300
C566        C  0.00714516  0.09752711  0.08345134     0.35900
C567        C  0.03374192  0.09110115  0.08635050    -0.26300
C568        C  0.06452981  0.11484352  0.10488502     0.02300
C569        C  0.07030176  0.14715688  0.11609638     0.27100
C570        C  0.04377788  0.15387716  0.11258535    -0.25400
N571        N  0.97532749  0.07128358  0.06698254    -0.82800
H572        H  0.02960735  0.06649900  0.07693596     0.12900
C573        C  0.08823985  0.10377931  0.11852588     0.02300
N574        N  0.10207479  0.17193430  0.13438282    -0.81400
H575        H  0.04713927  0.17745204  0.12528343     0.17800
C576        C  0.12003441  0.11802955  0.09939068    -0.26200
C577        C  0.14351858  0.10894265  0.11322773     0.35800
C578        C  0.13465269  0.08471229  0.14687811    -0.20300
C579        C  0.10255940  0.07045997  0.16569421    -0.25500
C580        C  0.07939109  0.07991571  0.15210526     0.27200
H581        H  0.12657506  0.13649970  0.07377903     0.12900
N582        N  0.17593942  0.12389696  0.09262884    -0.82800
H583        H  0.09554301  0.05206432  0.19148927     0.17800
N584        N  0.04694057  0.06562757  0.17251780    -0.81400
H585        H  0.17710832  0.13882484  0.06628007     0.33400
H586        H  0.19373982  0.14038083  0.11506844     0.37900
H587        H  0.04424886  0.04826841  0.19643083     0.33400
H588        H  0.04578083  0.08518572  0.18842946     0.30100
H589        H  0.10213236  0.19433852  0.14105092     0.33400
H590        H  0.10482188  0.16272760  0.16423660     0.30100
H591        H  0.95813822  0.07975484  0.06440686     0.37900
H592        H  0.97927234  0.06600483  0.03518808     0.33400
C593        C  0.95238558  0.82247774  0.15615722    -0.20300
C594        C  0.96595123  0.81296694  0.12114202     0.35900
C595        C  0.99999515  0.83379611  0.10967206    -0.26300
C596        C  0.02049079  0.86384557  0.13221843     0.02300
C597        C  0.00710135  0.87339684  0.16691574     0.27100
C598        C  0.97321983  0.85274444  0.17839050    -0.25400
N599        N  0.94504583  0.78278607  0.09664306    -0.82800
H600        H  0.01049471  0.82689420  0.08274815     0.12900
C601        C  0.05577489  0.88643571  0.11880156     0.02300
N602        N  0.02801301  0.90438899  0.18998620    -0.81400
H603        H  0.96314357  0.86023325  0.20519406     0.17800
C604        C  0.06259983  0.91411501  0.09255361    -0.26200
C605        C  0.09512935  0.94212963  0.08985956     0.35800
C606        C  0.12137691  0.94242241  0.11423448    -0.20300
C607        C  0.11535026  0.91296111  0.13587937    -0.25500
C608        C  0.08272414  0.88499152  0.13884192     0.27200
H609        H  0.04202487  0.91512160  0.07680888     0.12900
N610        N  0.10015485  0.97070882  0.06467048    -0.82800
H611        H  0.13530600  0.91302035  0.15475923     0.17800
N612        N  0.07761417  0.85674547  0.16482584    -0.81400
H613        H  0.09357677  0.96253213  0.03256809     0.33400
H614        H  0.12558249  0.98930713  0.06379988     0.37900
H615        H  0.08306900  0.86493363  0.19708118     0.33400
H616        H  0.05261293  0.83717272  0.16388237     0.30100
H617        H  0.01422563  0.90813936  0.21409809     0.33400
H618        H  0.04675884  0.90196792  0.20597392     0.30100
H619        H  0.92718521  0.78646552  0.08036614     0.37900
H620        H  0.95903857  0.77919737  0.07266477     0.33400
C621        C  0.12367929  0.01006823  0.65173599    -0.20300
C622        C  0.13534571  0.99392194  0.62330654     0.35900
C623        C  0.11323005  0.96109714  0.60855601    -0.26300
C624        C  0.07958247  0.94371553  0.62190768     0.02300
C625        C  0.06758853  0.96017859  0.64913885     0.27100
C626        C  0.08953891  0.99344302  0.66308754    -0.25400
N627        N  0.16974238  0.01068271  0.60944851    -0.82800
H628        H  0.12270622  0.94859912  0.58786367     0.12900
C629        C  0.05901373  0.90689664  0.61333348     0.02300
N630        N  0.03364352  0.94251558  0.66468064    -0.81400
H631        H  0.08025880  0.00557304  0.68473988     0.17800
C632        C  0.07023736  0.88620747  0.63147556    -0.26200
C633        C  0.04862850  0.85125303  0.63500314     0.35800
C634        C  0.01546603  0.83668231  0.61921378    -0.20300
C635        C  0.00561750  0.85663740  0.59612911    -0.25500
C636        C  0.02697307  0.89171650  0.59307828     0.27200
H637        H  0.09490199  0.89770115  0.64650519     0.12900
N638        N  0.05890947  0.83087279  0.65857511    -0.82800
H639        H  0.97998942  0.84551742  0.58439467     0.17800
N640        N  0.01491635  0.91105100  0.57061353    -0.81400
H641        H  0.08376998  0.84547620  0.66928291     0.33400
H642        H  0.05836775  0.81301144  0.63691679     0.37900
H643        H  0.99463125  0.90924140  0.58821129     0.33400
H644        H  0.03329250  0.93655912  0.56905583     0.30100
H645        H  0.03431342  0.94212409  0.69861613     0.33400
H646        H  0.02202753  0.95616070  0.65549200     0.30100
H647        H  0.17017313  0.01201784  0.57552413     0.37900
H648        H  0.18017824  0.99598201  0.61877103     0.33400
C649        C  0.21497812  0.09053798  0.80858839    -0.20300
C650        C  0.24149631  0.08542137  0.82200404     0.35900
C651        C  0.24838917  0.08584204  0.86667938    -0.26300
C652        C  0.22903159  0.09070659  0.89803906     0.02300
C653        C  0.20279595  0.09602108  0.88462659     0.27100
C654        C  0.19631724  0.09622456  0.84022916    -0.25400
N655        N  0.26090875  0.07927452  0.79057974    -0.82800
H656        H  0.26840582  0.08154510  0.87724800     0.12900
C657        C  0.23401293  0.08690806  0.94486104     0.02300
N658        N  0.18228423  0.10041663  0.91622814    -0.81400
H659        H  0.17627331  0.10069952  0.83037802     0.17800
C660        C  0.24076009  0.11314741  0.97413746    -0.26200
C661        C  0.24102589  0.10850710  0.01937423     0.35800
C662        C  0.23410482  0.07675310  0.03546152    -0.20300
C663        C  0.22918187  0.05129874  0.00564973    -0.25500
C664        C  0.22876574  0.05589096  0.96079598     0.27200
H665        H  0.24501771  0.13705400  0.96157316     0.12900
N666        N  0.24724873  0.13550422  0.04863635    -0.82800
H667        H  0.22450368  0.02702497  0.01729064     0.17800
N668        N  0.22174918  0.02866857  0.93142024    -0.81400
H669        H  0.25034153  0.15652635  0.03144058     0.33400
H670        H  0.27022008  0.14304440  0.06413271     0.37900
H671        H  0.21877553  0.00759089  0.94837199     0.33400
H672        H  0.19867145  0.02133432  0.91636118     0.30100
H673        H  0.16428286  0.10444409  0.90098493     0.33400
H674        H  0.16902465  0.07782423  0.93351773     0.30100
H675        H  0.24477082  0.05617210  0.77554534     0.37900
H676        H  0.27966943  0.07650743  0.80590999     0.33400
C677        C  0.21730325  0.10459818  0.53687604    -0.20300
C678        C  0.23272390  0.08790695  0.51789861     0.35900
C679        C  0.23116587  0.08332114  0.47260150    -0.26300
C680        C  0.21450633  0.09540197  0.44635730     0.02300
C681        C  0.19973676  0.11276517  0.46534302     0.27100
C682        C  0.20132281  0.11722991  0.51046468    -0.25400
N683        N  0.25077244  0.07661948  0.54433292    -0.82800
H684        H  0.24276549  0.07019791  0.45790922     0.12900
C685        C  0.21126116  0.08880461  0.39913268     0.02300
N686        N  0.18309929  0.12564718  0.43858311    -0.81400
H687        H  0.18982793  0.13044905  0.52522323     0.17800
C688        C  0.17973891  0.06506253  0.38251814    -0.26200
C689        C  0.17476467  0.05899599  0.33773922     0.35800
C690        C  0.20210092  0.07695166  0.30898491    -0.20300
C691        C  0.23354117  0.10126919  0.32564183    -0.25500
C692        C  0.23837557  0.10738697  0.37064106     0.27200
H693        H  0.15889285  0.05138656  0.40469520     0.12900
N694        N  0.14200926  0.03479417  0.32132038    -0.82800
H695        H  0.25452793  0.11482797  0.30364948     0.17800
N696        N  0.27060673  0.13224913  0.38759898    -0.81400
H697        H  0.13348594  0.04790748  0.30235895     0.33400
H698        H  0.12481204  0.02372766  0.34673556     0.37900
H699        H  0.28794958  0.14355919  0.36236830     0.33400
H700        H  0.26775681  0.15132302  0.40198987     0.30100
H701        H  0.17335449  0.13761863  0.45763753     0.33400
H702        H  0.20126736  0.14418477  0.41841486     0.30100
H703        H  0.24018959  0.05062942  0.53956004     0.37900
H704        H  0.27567573  0.08853921  0.53349984     0.33400
C705        C  0.95093423  0.08296766  0.65717283    -0.20300
C706        C  0.95971780  0.08766871  0.61270244     0.35900
C707        C  0.99294052  0.09862948  0.60013270    -0.26300
C708        C  0.01759203  0.10495798  0.63127958     0.02300
C709        C  0.00869623  0.09901225  0.67565518     0.27100
C710        C  0.97532308  0.08797671  0.68822137    -0.25400
N711        N  0.93471253  0.08065214  0.58014238    -0.82800
H712        H  0.99956747  0.10242573  0.56600141     0.12900
C713        C  0.05271473  0.11730558  0.61758401     0.02300
N714        N  0.03371982  0.10439447  0.70766872    -0.81400
H715        H  0.96849874  0.08397466  0.72227611     0.17800
C716        C  0.07754639  0.15028697  0.62864463    -0.26200
C717        C  0.11174939  0.16033888  0.62640895     0.35800
C718        C  0.12110331  0.13666965  0.61322853    -0.20300
C719        C  0.09647017  0.10534560  0.59650332    -0.25500
C720        C  0.06214974  0.09518992  0.59903974     0.27200
H721        H  0.07024361  0.16750751  0.64213145     0.12900
N722        N  0.13603903  0.19339726  0.64199832    -0.82800
H723        H  0.10367188  0.08708249  0.58694915     0.17800
N724        N  0.03688753  0.06167350  0.58618515    -0.81400
H725        H  0.13426311  0.21099178  0.62230684     0.33400
H726        H  0.16050922  0.19786605  0.63799379     0.37900
H727        H  0.04808618  0.04860450  0.57324567     0.33400
H728        H  0.02407680  0.04863086  0.61415309     0.30100
H729        H  0.02320499  0.09909523  0.73878449     0.33400
H730        H  0.04167553  0.08706299  0.70155791     0.30100
H731        H  0.94241084  0.10260680  0.56198854     0.37900
H732        H  0.93363850  0.06208241  0.55935984     0.33400
C733        C  0.18465368  0.82719725  0.82997617    -0.20300
C734        C  0.18093848  0.84147380  0.79105723     0.35900
C735        C  0.14823686  0.83142180  0.77517945    -0.26300
C736        C  0.11925032  0.80743152  0.79735921     0.02300
C737        C  0.12292994  0.79543016  0.83780468     0.27100
C738        C  0.15533193  0.80569499  0.85386197    -0.25400
N739        N  0.21011929  0.86475807  0.76672824    -0.82800
H740        H  0.14530676  0.84140107  0.74464424     0.12900
C741        C  0.08495983  0.79461332  0.77840746     0.02300
N742        N  0.09359689  0.77163972  0.86159740    -0.81400
H743        H  0.15751368  0.79481522  0.88405298     0.17800
C744        C  0.06877856  0.76353902  0.75612994    -0.26200
C745        C  0.03565728  0.74992622  0.73955996     0.35800
C746        C  0.01780089  0.76711798  0.74702095    -0.20300
C747        C  0.03425616  0.79812834  0.76971373    -0.25500
C748        C  0.06752062  0.81211506  0.78496708     0.27200
H749        H  0.08220205  0.74999296  0.75141707     0.12900
N750        N  0.02006319  0.71850956  0.71617068    -0.82800
H751        H  0.02140604  0.81222166  0.77458135     0.17800
N752        N  0.08381556  0.84425452  0.80676101    -0.81400
H753        H  0.03579076  0.70816915  0.71594989     0.33400
H754        H  0.01769508  0.72380243  0.68377848     0.37900
H755        H  0.06784165  0.85427862  0.80826051     0.33400
H756        H  0.08841366  0.84022594  0.83883713     0.30100
H757        H  0.10048565  0.76451341  0.89031196     0.33400
H758        H  0.08057135  0.78388930  0.87079675     0.30100
H759        H  0.22372674  0.88632356  0.78591196     0.37900
H760        H  0.20304666  0.87248582  0.73867742     0.33400
C761        C  0.13873074  0.78228104  0.32404741    -0.20300
C762        C  0.13082935  0.78766927  0.28162686     0.35900
C763        C  0.13955767  0.82045831  0.26789090    -0.26300
C764        C  0.15690769  0.84855345  0.29552500     0.02300
C765        C  0.16214609  0.84280907  0.33923016     0.27100
C766        C  0.15253534  0.80978318  0.35306199    -0.25400
N767        N  0.11698333  0.76044932  0.25099503    -0.82800
H768        H  0.13452958  0.82424765  0.23459443     0.12900
C769        C  0.17076483  0.88373248  0.27794854     0.02300
N770        N  0.17937163  0.87078731  0.36867317    -0.81400
H771        H  0.15963952  0.80618095  0.38531419     0.17800
C772        C  0.16227931  0.90595226  0.29801923    -0.26200
C773        C  0.17386035  0.93871266  0.28171380     0.35800
C774        C  0.19427253  0.94976638  0.24407745    -0.20300
C775        C  0.20409016  0.92821377  0.22505646    -0.25500
C776        C  0.19263842  0.89540022  0.24160784     0.27200
H777        H  0.14576676  0.89736592  0.32597838     0.12900
N778        N  0.16409558  0.96058576  0.30249444    -0.82800
H779        H  0.21922780  0.93627696  0.19581997     0.17800
N780        N  0.20273372  0.87367804  0.22122129    -0.81400
H781        H  0.14896214  0.94878864  0.32956007     0.33400
H782        H  0.18595883  0.98167083  0.31407989     0.37900
H783        H  0.21853924  0.88580688  0.19481485     0.33400
H784        H  0.21695935  0.86910430  0.24380859     0.30100
H785        H  0.18134706  0.86237325  0.39949373     0.33400
H786        H  0.20393708  0.88587739  0.35721890     0.30100
H787        H  0.13355590  0.76741986  0.22479080     0.37900
H788        H  0.09432103  0.75766644  0.23945304     0.33400
C789        C  0.21158262  0.75173956  0.47600458    -0.20300
C790        C  0.21333575  0.78193579  0.49036327     0.35900
C791        C  0.21474081  0.78859237  0.53521501    -0.26300
C792        C  0.21444438  0.76589269  0.56603472     0.02300
C793        C  0.21274131  0.73586477  0.55189376     0.27100
C794        C  0.21109444  0.72903382  0.50727096    -0.25400
N795        N  0.21407490  0.80594079  0.45973884    -0.82800
H796        H  0.21606446  0.81166774  0.54632537     0.12900
C797        C  0.21776382  0.77465330  0.61294240     0.02300
N798        N  0.21327760  0.71267644  0.58289646    -0.81400
H799        H  0.20956793  0.70569671  0.49699998     0.17800
C800        C  0.19338088  0.75253418  0.64253534    -0.26200
C801        C  0.19726175  0.75889413  0.68757235     0.35800
C802        C  0.22612680  0.78825847  0.70316730    -0.20300
C803        C  0.24964540  0.81096148  0.67309409    -0.25500
C804        C  0.24607851  0.80424020  0.62840900     0.27200
H805        H  0.17155807  0.72987416  0.63041414     0.12900
N806        N  0.17282084  0.73492233  0.71726329    -0.82800
H807        H  0.27177459  0.83362046  0.68457810     0.17800
N808        N  0.27178321  0.82673451  0.59878574    -0.81400
H809        H  0.15439991  0.71378199  0.70053988     0.33400
H810        H  0.16044251  0.74633855  0.73161518     0.37900
H811        H  0.29096323  0.84742082  0.61536983     0.33400
H812        H  0.28273715  0.81365489  0.58518112     0.30100
H813        H  0.21161199  0.69164757  0.56720563     0.33400
H814        H  0.23664571  0.72493346  0.59855248     0.30100
H815        H  0.19023602  0.79513484  0.44543632     0.37900
H816        H  0.21777488  0.82770226  0.47568868     0.33400
C817        C  0.22473998  0.75614059  0.97378323    -0.20300
C818        C  0.19809551  0.72633693  0.99148427     0.35900
C819        C  0.19256422  0.72443560  0.03668542    -0.26300
C820        C  0.21297476  0.75193716  0.06400767     0.02300
C821        C  0.23856289  0.78217070  0.04577308     0.27100
C822        C  0.24440438  0.78378402  0.00098810    -0.25400
N823        N  0.17740505  0.69805030  0.96382638    -0.82800
H824        H  0.17275785  0.70127755  0.05080716     0.12900
C825        C  0.20777478  0.74887683  0.11173168     0.02300
N826        N  0.25833084  0.81117776  0.07284563    -0.81400
H827        H  0.26420984  0.80698827  0.98699043     0.17800
C828        C  0.23451613  0.75430993  0.13913168    -0.26200
C829        C  0.23064856  0.75162457  0.18454908     0.35800
C830        C  0.19926010  0.74332363  0.20291486    -0.20300
C831        C  0.17261555  0.73793606  0.17518484    -0.25500
C832        C  0.17665096  0.74103482  0.12997676     0.27200
H833        H  0.25838136  0.76015743  0.12486680     0.12900
N834        N  0.25812121  0.75630428  0.21171244    -0.82800
H835        H  0.14833448  0.73116807  0.18876710     0.17800
N836        N  0.14935590  0.73651417  0.10252803    -0.81400
H837        H  0.27951329  0.76275694  0.19306682     0.33400
H838        H  0.25113630  0.73300615  0.22595435     0.37900
H839        H  0.12809514  0.73075269  0.12106491     0.33400
H840        H  0.15671966  0.75961664  0.08740124     0.30100
H841        H  0.27621933  0.83138756  0.05436040     0.33400
H842        H  0.24213433  0.81876568  0.08567002     0.30100
H843        H  0.19270613  0.68946685  0.95063490     0.37900
H844        H  0.15887006  0.67812360  0.98201207     0.33400
C845        C  0.20759514  0.49372541  0.31829301    -0.20300
C846        C  0.18977023  0.48823980  0.27845124     0.35900
C847        C  0.17934679  0.51075615  0.26531750    -0.26300
C848        C  0.18605163  0.53861368  0.29091759     0.02300
C849        C  0.20401955  0.54460490  0.33018339     0.27100
C850        C  0.21478291  0.52222283  0.34336030    -0.25400
N851        N  0.18229636  0.46050228  0.25010524    -0.82800
H852        H  0.16550444  0.50623272  0.23516875     0.12900
C853        C  0.17254786  0.56054585  0.27824987     0.02300
N854        N  0.21052795  0.57301743  0.35694702    -0.81400
H855        H  0.22842053  0.52681491  0.37367740     0.17800
C856        C  0.14212816  0.55421844  0.29672461    -0.26200
C857        C  0.13293834  0.57900882  0.29672678     0.35800
C858        C  0.15481583  0.61078279  0.27785340    -0.20300
C859        C  0.18274474  0.61525485  0.25399255    -0.25500
C860        C  0.19214781  0.59043028  0.25446877     0.27200
H861        H  0.12692175  0.53103863  0.31461383     0.12900
N862        N  0.10348807  0.57268643  0.32068784    -0.82800
H863        H  0.19970530  0.63979487  0.24007410     0.17800
N864        N  0.22265095  0.59642037  0.23367841    -0.81400
H865        H  0.08278580  0.55194375  0.30628875     0.33400
H866        H  0.09907735  0.59282134  0.31765667     0.37900
H867        H  0.23407087  0.61961836  0.21755011     0.33400
H868        H  0.23946675  0.59829343  0.25790224     0.30100
H869        H  0.22345567  0.57353927  0.38516465     0.33400
H870        H  0.22652383  0.59497677  0.33970187     0.30100
H871        H  0.20471822  0.46111287  0.24231233     0.37900
H872        H  0.16602368  0.43790684  0.26589280     0.33400
C873        C  0.18573956  0.31763460  0.31475753    -0.20300
C874        C  0.18227667  0.30766663  0.27057315     0.35900
C875        C  0.14984404  0.28563969  0.25322600    -0.26300
C876        C  0.12070733  0.27319511  0.27901087     0.02300
C877        C  0.12452571  0.28141852  0.32370109     0.27100
C878        C  0.15678427  0.30275581  0.34104805    -0.25400
N879        N  0.21130856  0.32132176  0.24285410    -0.82800
H880        H  0.14720307  0.27869796  0.21919052     0.12900
C881        C  0.08629832  0.25115428  0.25970333     0.02300
N882        N  0.09538670  0.26943295  0.35105878    -0.81400
H883        H  0.15896088  0.31007080  0.37491235     0.17800
C884        C  0.06472031  0.21987966  0.27911731    -0.26200
C885        C  0.03177026  0.19869505  0.26383914     0.35800
C886        C  0.01997015  0.20812001  0.22696397    -0.20300
C887        C  0.04127572  0.23963064  0.20762785    -0.25500
C888        C  0.07422287  0.26133564  0.22378095     0.27200
H889        H  0.07372805  0.21183578  0.30653655     0.12900
N890        N  0.01023482  0.16723690  0.28547844    -0.82800
H891        H  0.03266812  0.24680586  0.17897725     0.17800
N892        N  0.09545627  0.29352944  0.20372276    -0.81400
H893        H  0.02260665  0.16391151  0.31186816     0.33400
H894        H  0.98985025  0.16854382  0.29819917     0.37900
H895        H  0.08303055  0.29717263  0.17769172     0.33400
H896        H  0.10006037  0.31222972  0.22666375     0.30100
H897        H  0.10239158  0.27767671  0.38306287     0.33400
H898        H  0.08146105  0.28026982  0.33997174     0.30100
H899        H  0.22686537  0.31243619  0.25420379     0.37900
H900        H  0.20439884  0.31221488  0.21114898     0.33400
C901        C  0.12588561  0.31030569  0.82155478    -0.20300
C902        C  0.13790709  0.29474060  0.85043973     0.35900
C903        C  0.14749676  0.27196149  0.83486381    -0.26300
C904        C  0.14480012  0.26316910  0.79069003     0.02300
C905        C  0.12864743  0.27540420  0.76250417     0.27100
C906        C  0.12030949  0.29939251  0.77802713    -0.25400
N907        N  0.14227579  0.30351467  0.89563282    -0.82800
H908        H  0.15875324  0.26236920  0.85745017     0.12900
C909        C  0.16016629  0.24241260  0.77565142     0.02300
N910        N  0.12063016  0.26448870  0.71806269    -0.81400
H911        H  0.11113889  0.31090007  0.75519365     0.17800
C912        C  0.15391899  0.21342647  0.79901103    -0.26200
C913        C  0.16831593  0.19366668  0.78679862     0.35800
C914        C  0.18854565  0.20198293  0.74890272    -0.20300
C915        C  0.19641504  0.23214059  0.72718775    -0.25500
C916        C  0.18313828  0.25255636  0.74067709     0.27200
H917        H  0.13741995  0.20594048  0.82695535     0.12900
N918        N  0.16192572  0.16489308  0.81255800    -0.82800
H919        H  0.21228165  0.23960630  0.69861911     0.17800
N920        N  0.19335370  0.28381065  0.71884415    -0.81400
H921        H  0.14655322  0.16215248  0.83903031     0.33400
H922        H  0.18497401  0.16966247  0.82543921     0.37900
H923        H  0.21949651  0.29881132  0.72160591     0.33400
H924        H  0.18746182  0.27863181  0.68588084     0.30100
H925        H  0.12469800  0.24451126  0.71154177     0.33400
H926        H  0.09471099  0.25444361  0.71404464     0.30100
H927        H  0.16766634  0.31344255  0.90349807     0.37900
H928        H  0.12822310  0.28139250  0.91357943     0.33400
C929        C  0.22056836  0.40564100  0.20301928    -0.20300
C930        C  0.23969450  0.43451684  0.17731960     0.35900
C931        C  0.23301074  0.43342721  0.13291283    -0.26300
C932        C  0.20753189  0.40390979  0.11356743     0.02300
C933        C  0.18777512  0.37510020  0.13916383     0.27100
C934        C  0.19431297  0.37632501  0.18403563    -0.25400
N935        N  0.26552093  0.46523418  0.19651163    -0.82800
H936        H  0.24771120  0.45580840  0.11336582     0.12900
C937        C  0.20077209  0.40489899  0.06691464     0.02300
N938        N  0.16135139  0.34490364  0.11945749    -0.81400
H939        H  0.17943600  0.35427558  0.20396674     0.17800
C940        C  0.21093583  0.38906088  0.03642591    -0.26200
C941        C  0.20860658  0.39345449  0.99145448     0.35800
C942        C  0.19557101  0.41397376  0.97713394    -0.20300
C943        C  0.18438800  0.42865220  0.00834286    -0.25500
C944        C  0.18686134  0.42434359  0.05281829     0.27200
H945        H  0.22170244  0.37417637  0.04781717     0.12900
N946        N  0.21956503  0.37735791  0.96075536    -0.82800
H947        H  0.17393347  0.44408872  0.99823031     0.17800
N948        N  0.17590737  0.44020806  0.08396148    -0.81400
H949        H  0.22685850  0.36195294  0.97678572     0.33400
H950        H  0.24116202  0.39630818  0.94557900     0.37900
H951        H  0.16653887  0.45401926  0.06829721     0.33400
H952        H  0.15583691  0.42106365  0.10128008     0.30100
H953        H  0.14959270  0.32581830  0.14266943     0.33400
H954        H  0.14313833  0.35027384  0.10808790     0.30100
H955        H  0.28824029  0.47201488  0.18092306     0.37900
H956        H  0.25967934  0.48417169  0.19068548     0.33400
C957        C  0.21643734  0.41814209  0.47706200    -0.20300
C958        C  0.18593134  0.38961214  0.49037501     0.35900
C959        C  0.17840941  0.38418637  0.53496766    -0.26300
C960        C  0.20098735  0.40613919  0.56631590     0.02300
C961        C  0.23181495  0.43416562  0.55313935     0.27100
C962        C  0.23908072  0.43972110  0.50888285    -0.25400
N963        N  0.16285657  0.36617070  0.45890147    -0.82800
H964        H  0.15471033  0.36289303  0.54542896     0.12900
C965        C  0.19034410  0.40156993  0.61214594     0.02300
N966        N  0.25617243  0.45774503  0.58349153    -0.81400
H967        H  0.26273687  0.46154283  0.49941907     0.17800
C968        C  0.20065989  0.38481519  0.64088859    -0.26200
C969        C  0.19313948  0.38276075  0.68553379     0.35800
C970        C  0.17505223  0.39799992  0.70140524    -0.20300
C971        C  0.16414452  0.41397551  0.67179990    -0.25500
C972        C  0.17181755  0.41611683  0.62755723     0.27200
H973        H  0.21507190  0.37384383  0.62848177     0.12900
N974        N  0.20413064  0.36566914  0.71451400    -0.82800
H975        H  0.15024764  0.42577508  0.68323326     0.17800
N976        N  0.16131442  0.43345944  0.59817597    -0.81400
H977        H  0.21795040  0.35687890  0.69770754     0.33400
H978        H  0.18262845  0.34430173  0.72621753     0.37900
H979        H  0.14742337  0.44237411  0.61458182     0.33400
H980        H  0.18295335  0.45473225  0.58659410     0.30100
H981        H  0.25793936  0.48114181  0.57846509     0.33400
H982        H  0.24878755  0.45109435  0.61568027     0.30100
H983        H  0.17466129  0.35436221  0.44406067     0.37900
H984        H  0.14138495  0.34707403  0.47418127     0.33400
C985        C  0.21894091  0.68105207  0.80858903    -0.20300
C986        C  0.23841732  0.66523311  0.81311002     0.35900
C987        C  0.22504592  0.63175775  0.79910133    -0.26300
C988        C  0.19280137  0.61369699  0.78064846     0.02300
C989        C  0.17402171  0.62982835  0.77407800     0.27100
C990        C  0.18725842  0.66330960  0.78803812    -0.25400
N991        N  0.27151325  0.68285526  0.83203987    -0.82800
H992        H  0.23927697  0.61911193  0.80452350     0.12900
C993        C  0.17784155  0.57691797  0.77379773     0.02300
N994        N  0.14136018  0.61189333  0.75401309    -0.81400
H995        H  0.17230902  0.67529552  0.78360948     0.17800
C996        C  0.14887862  0.55485180  0.79737998    -0.26200
C997        C  0.13897342  0.52063283  0.80171102     0.35800
C998        C  0.15817160  0.50840423  0.78143550    -0.20300
C999        C  0.18515812  0.52969499  0.75450811    -0.25500
C1000       C  0.19523735  0.56396875  0.75045336     0.27200
H1001       H  0.13581981  0.56494471  0.81574368     0.12900
N1002       N  0.11208185  0.49928848  0.83066957    -0.82800
H1003       H  0.20014437  0.52018647  0.73970665     0.17800
N1004       N  0.22438898  0.58617494  0.72523105    -0.81400
H1005       H  0.10156207  0.51257901  0.84485206     0.33400
H1006       H  0.09309568  0.48003817  0.81199415     0.37900
H1007       H  0.23473626  0.57279653  0.71083267     0.33400
H1008       H  0.21639536  0.59568006  0.69991411     0.30100
H1009       H  0.13070172  0.62729893  0.75175095     0.33400
H1010       H  0.14468976  0.60611038  0.72219325     0.30100
H1011       H  0.26860144  0.68497036  0.86537540     0.37900
H1012       H  0.28341938  0.66862833  0.82908158     0.33400
C1013       C  0.47960169  0.76685284  0.82539900    -0.20300
C1014       C  0.44578680  0.75165417  0.83922347     0.35900
C1015       C  0.42488870  0.76291504  0.82239741    -0.26300
C1016       C  0.43700602  0.78939466  0.79237614     0.02300
C1017       C  0.47056919  0.80484569  0.77836333     0.27100
C1018       C  0.49156376  0.79334655  0.79484645    -0.25400
N1019       N  0.43240328  0.72484705  0.87039554    -0.82800
H1020       H  0.39908073  0.75133781  0.83357994     0.12900
C1021       C  0.41444683  0.80205843  0.77958073     0.02300
N1022       N  0.48313277  0.83217648  0.74777588    -0.81400
H1023       H  0.51735907  0.80516570  0.78368473     0.17800
C1024       C  0.41721771  0.82999370  0.80187849    -0.26200
C1025       C  0.39018252  0.83604826  0.80279741     0.35800
C1026       C  0.36019357  0.81377318  0.78054936    -0.20300
C1027       C  0.35920656  0.78847546  0.75382653    -0.25500
C1028       C  0.38616861  0.78232882  0.75321346     0.27200
H1029       H  0.43911523  0.84499324  0.82209919     0.12900
N1030       N  0.39151001  0.86194598  0.83052496    -0.82800
H1031       H  0.33607527  0.77138719  0.73691820     0.17800
N1032       N  0.38391528  0.75449273  0.72887681    -0.81400
H1033       H  0.41466880  0.87486223  0.84660316     0.33400
H1034       H  0.38993636  0.87959097  0.81067130     0.37900
H1035       H  0.36119574  0.74209211  0.71176034     0.33400
H1036       H  0.40308401  0.76448425  0.70565469     0.30100
H1037       H  0.50846924  0.84092365  0.74089346     0.33400
H1038       H  0.46992070  0.82260541  0.71868907     0.30100
H1039       H  0.41181703  0.70379544  0.85632698     0.37900
H1040       H  0.42371192  0.73243515  0.89702666     0.33400
C1041       C  0.64883513  0.77310711  0.80657519    -0.20300
C1042       C  0.67615324  0.79768130  0.83091863     0.35900
C1043       C  0.69780314  0.82977590  0.81253603    -0.26300
C1044       C  0.69059713  0.83932413  0.77199309     0.02300
C1045       C  0.66402667  0.81353983  0.74695255     0.27100
C1046       C  0.64589293  0.78034961  0.76313504    -0.25400
N1047       N  0.68114270  0.79021220  0.87466108    -0.82800
H1048       H  0.71951473  0.84775684  0.83100802     0.12900
C1049       C  0.71073564  0.87575861  0.75644624     0.02300
N1050       N  0.65360323  0.82124912  0.70661439    -0.81400
H1051       H  0.62603405  0.76109548  0.74349484     0.17800
C1052       C  0.71741476  0.88286545  0.71176265    -0.26200
C1053       C  0.73504534  0.91613275  0.69585964     0.35800
C1054       C  0.75109886  0.94326746  0.72515890    -0.20300
C1055       C  0.74512766  0.93689879  0.76970730    -0.25500
C1056       C  0.72349746  0.90384045  0.78542962     0.27200
H1057       H  0.70993057  0.86258109  0.68865621     0.12900
N1058       N  0.73887268  0.92230463  0.64983795    -0.82800
H1059       H  0.75734834  0.95782409  0.79228706     0.17800
N1060       N  0.71456305  0.89895952  0.83064084    -0.81400
H1061       H  0.72612727  0.89964314  0.63251710     0.33400
H1062       H  0.72718801  0.93613222  0.64190851     0.37900
H1063       H  0.72606715  0.92201997  0.84724476     0.33400
H1064       H  0.68861348  0.88933320  0.83263223     0.30100
H1065       H  0.63431004  0.79949145  0.69202168     0.33400
H1066       H  0.64383609  0.83695434  0.71364288     0.30100
H1067       H  0.68638631  0.77054424  0.87320165     0.37900
H1068       H  0.70225588  0.81090532  0.88845110     0.33400
C1069       C  0.44478658  0.62374947  0.79128318    -0.20300
C1070       C  0.41798951  0.62845016  0.77874759     0.35900
C1071       C  0.38523453  0.60076835  0.77792564    -0.26300
C1072       C  0.37902177  0.56864514  0.78984442     0.02300
C1073       C  0.40607076  0.56329349  0.79833479     0.27100
C1074       C  0.43895083  0.59101828  0.79844001    -0.25400
N1075       N  0.42383063  0.66153651  0.76900227    -0.82800
H1076       H  0.36436257  0.60474389  0.77106724     0.12900
C1077       C  0.34441242  0.54266635  0.80107404     0.02300
N1078       N  0.39975999  0.53037381  0.81065675    -0.81400
H1079       H  0.45959011  0.58746990  0.80832712     0.17800
C1080       C  0.32628070  0.51480598  0.77381680    -0.26200
C1081       C  0.29318267  0.48985573  0.78414717     0.35800
C1082       C  0.27827265  0.49299634  0.82287734    -0.20300
C1083       C  0.29683053  0.52103709  0.85004451    -0.25500
C1084       C  0.32980448  0.54577274  0.83967331     0.27200
H1085       H  0.33789330  0.51279430  0.74421616     0.12900
N1086       N  0.27469038  0.46180332  0.75513979    -0.82800
H1087       H  0.28570087  0.52357716  0.87977605     0.17800
N1088       N  0.34865968  0.57410013  0.86817668    -0.81400
H1089       H  0.28966741  0.46300548  0.72890215     0.33400
H1090       H  0.25485963  0.46399947  0.74211531     0.37900
H1091       H  0.33418155  0.57280452  0.89504924     0.33400
H1092       H  0.36903776  0.57241222  0.88020629     0.30100
H1093       H  0.42231493  0.53105869  0.81784240     0.33400
H1094       H  0.38944637  0.51451271  0.78368904     0.30100
H1095       H  0.40955070  0.66695295  0.79044579     0.37900
H1096       H  0.41510757  0.66112307  0.73750782     0.33400
C1097       C  0.34880044  0.51592080  0.28343087    -0.20300
C1098       C  0.37918174  0.52701971  0.30596373     0.35900
C1099       C  0.40381710  0.56114178  0.30416022    -0.26300
C1100       C  0.39884012  0.58410517  0.27963649     0.02300
C1101       C  0.37025795  0.57184145  0.25226686     0.27100
C1102       C  0.34500196  0.53792870  0.25557587    -0.25400
N1103       N  0.38322729  0.50447414  0.33448802    -0.82800
H1104       H  0.42584216  0.57029295  0.32476739     0.12900
C1105       C  0.42183819  0.62046857  0.28823903     0.02300
N1106       N  0.36547355  0.59315964  0.22237315    -0.81400
H1107       H  0.32152787  0.52915309  0.23817595     0.17800
C1108       C  0.45649124  0.63266431  0.28815324    -0.26200
C1109       C  0.47908917  0.66444374  0.30509569     0.35800
C1110       C  0.46711250  0.68560396  0.32052773    -0.20300
C1111       C  0.43247313  0.67398332  0.31872093    -0.25500
C1112       C  0.40970987  0.64130996  0.30392200     0.27200
H1113       H  0.46599476  0.61662651  0.27686659     0.12900
N1114       N  0.51400137  0.67440716  0.30775584    -0.82800
H1115       H  0.42279417  0.68969874  0.33063852     0.17800
N1116       N  0.37428461  0.62879964  0.30706463    -0.81400
H1117       H  0.51614525  0.65722648  0.32787716     0.33400
H1118       H  0.52218727  0.67236981  0.27684923     0.37900
H1119       H  0.36854649  0.63006317  0.33963246     0.33400
H1120       H  0.36879477  0.64482574  0.28921765     0.30100
H1121       H  0.36296006  0.58288572  0.19130720     0.33400
H1122       H  0.38684812  0.61715211  0.22099755     0.30100
H1123       H  0.40642828  0.51709116  0.35060339     0.37900
H1124       H  0.38369000  0.48593653  0.31525259     0.33400
C1125       C  0.76127667  0.78122116  0.24919830    -0.20300
C1126       C  0.77292282  0.80409931  0.28472160     0.35900
C1127       C  0.75409448  0.81873500  0.29962328    -0.26300
C1128       C  0.72318511  0.81081538  0.28067140     0.02300
C1129       C  0.71076086  0.78690338  0.24624474     0.27100
C1130       C  0.72991197  0.77252305  0.23085513    -0.25400
N1131       N  0.80418972  0.81259015  0.30551639    -0.82800
H1132       H  0.76385627  0.83682030  0.32604659     0.12900
C1133       C  0.70368483  0.82685625  0.29802557     0.02300
N1134       N  0.67881935  0.77749516  0.22671162    -0.81400
H1135       H  0.72100707  0.75564355  0.20313249     0.17800
C1136       C  0.69248213  0.84330719  0.26970967    -0.26200
C1137       C  0.66967393  0.85364018  0.28366830     0.35800
C1138       C  0.65751250  0.84741018  0.32675316    -0.20300
C1139       C  0.67248755  0.83546005  0.35633488    -0.25500
C1140       C  0.69480906  0.82456840  0.34245960     0.27200
H1141       H  0.70008886  0.84640933  0.23594797     0.12900
N1142       N  0.65584898  0.86700578  0.25303158    -0.82800
H1143       H  0.66294334  0.82999034  0.38929297     0.17800
N1144       N  0.70633620  0.80878970  0.37286235    -0.81400
H1145       H  0.66675817  0.86957451  0.22244797     0.33400
H1146       H  0.66251427  0.89131745  0.26337734     0.37900
H1147       H  0.69758821  0.80901481  0.40413428     0.33400
H1148       H  0.69570497  0.78343870  0.36387154     0.30100
H1149       H  0.67331816  0.75995736  0.20177464     0.33400
H1150       H  0.66031647  0.76534140  0.25045328     0.30100
H1151       H  0.80079600  0.79051771  0.32008228     0.37900
H1152       H  0.80961326  0.83000897  0.33058918     0.33400
C1153       C  0.55328061  0.76422890  0.47648426    -0.20300
C1154       C  0.58471029  0.77019533  0.49249619     0.35900
C1155       C  0.58911848  0.76885437  0.53758683    -0.26300
C1156       C  0.56279324  0.76141562  0.56657890     0.02300
C1157       C  0.53142740  0.75488433  0.55075654     0.27100
C1158       C  0.52704477  0.75650257  0.50609472    -0.25400
N1159       N  0.61202794  0.77781043  0.46334824    -0.82800
H1160       H  0.61300794  0.77328772  0.55024455     0.12900
C1161       C  0.56698109  0.75778084  0.61337838     0.02300
N1162       N  0.50402136  0.74630279  0.58024179    -0.81400
H1163       H  0.50275737  0.75165337  0.49452087     0.17800
C1164       C  0.56529504  0.78021328  0.64290354    -0.26200
C1165       C  0.56385300  0.77439997  0.68787386     0.35800
C1166       C  0.56393202  0.74538570  0.70317042    -0.20300
C1167       C  0.56671929  0.72366421  0.67344369    -0.25500
C1168       C  0.56810387  0.72948982  0.62867776     0.27200
H1169       H  0.56406441  0.80171508  0.63063200     0.12900
N1170       N  0.56064335  0.79684348  0.71758775    -0.82800
H1171       H  0.56724081  0.70165648  0.68519032     0.17800
N1172       N  0.56948460  0.70620356  0.59857554    -0.81400
H1173       H  0.55858285  0.81547435  0.70064280     0.33400
H1174       H  0.58298608  0.80951436  0.73541293     0.37900
H1175       H  0.57034968  0.68677463  0.61517681     0.33400
H1176       H  0.54704919  0.69486950  0.58075537     0.30100
H1177       H  0.48262979  0.74254545  0.56341697     0.33400
H1178       H  0.49770807  0.72321211  0.59462685     0.30100
H1179       H  0.60526334  0.75607540  0.44506298     0.37900
H1180       H  0.63366575  0.78292875  0.48068698     0.33400
C1181       C  0.56096142  0.75834599  0.97688559    -0.20300
C1182       C  0.56172894  0.78718562  0.99419543     0.35900
C1183       C  0.56554883  0.79271100  0.03928624    -0.26300
C1184       C  0.56948152  0.77041916  0.06666000     0.02300
C1185       C  0.57147449  0.74324468  0.04868529     0.27100
C1186       C  0.56672725  0.73722067  0.00401011    -0.25400
N1187       N  0.55651598  0.80939069  0.96653239    -0.82800
H1188       H  0.56418806  0.81367475  0.05333187     0.12900
C1189       C  0.56914110  0.77425281  0.11425680     0.02300
N1190       N  0.57753697  0.72147972  0.07612096    -0.81400
H1191       H  0.56671657  0.71541721  0.99030902     0.17800
C1192       C  0.54479638  0.74719437  0.13884101    -0.26200
C1193       C  0.54309515  0.74969020  0.18384193     0.35800
C1194       C  0.56579411  0.78021353  0.20495367    -0.20300
C1195       C  0.59014288  0.80723823  0.18012195    -0.25500
C1196       C  0.59233634  0.80445171  0.13509483     0.27200
H1197       H  0.52669531  0.72398935  0.12278857     0.12900
N1198       N  0.51753144  0.72117203  0.20678486    -0.82800
H1199       H  0.60748476  0.83080153  0.19586096     0.17800
N1200       N  0.61793413  0.83208546  0.11046988    -0.81400
H1201       H  0.52939986  0.71321375  0.22885029     0.33400
H1202       H  0.50270307  0.72849464  0.22381067     0.37900
H1203       H  0.63290866  0.85256464  0.13078740     0.33400
H1204       H  0.63372935  0.82411316  0.09730997     0.30100
H1205       H  0.57805377  0.70254070  0.05778974     0.33400
H1206       H  0.60152817  0.73604739  0.08967685     0.30100
H1207       H  0.57727374  0.82137889  0.94587719     0.37900
H1208       H  0.55628998  0.82850287  0.98486384     0.33400
C1209       C  0.46009640  0.80055362  0.27170291    -0.20300
C1210       C  0.43658820  0.76623419  0.26295506     0.35900
C1211       C  0.40213474  0.75455904  0.26709747    -0.26300
C1212       C  0.39055065  0.77676961  0.27749040     0.02300
C1213       C  0.41386994  0.81188594  0.27840141     0.27100
C1214       C  0.44854791  0.82340485  0.27609129    -0.25400
N1215       N  0.44707387  0.74198223  0.25512697    -0.82800
H1216       H  0.38469078  0.72760865  0.26571495     0.12900
C1217       C  0.35539955  0.76288458  0.29357114     0.02300
N1218       N  0.40230917  0.83544529  0.28474128    -0.81400
H1219       H  0.46651315  0.84969785  0.28282604     0.17800
C1220       C  0.35048288  0.77485412  0.33336704    -0.26200
C1221       C  0.31814521  0.76295461  0.35026732     0.35800
C1222       C  0.29005862  0.73731393  0.32806615    -0.20300
C1223       C  0.29483833  0.72385206  0.28960957    -0.25500
C1224       C  0.32718067  0.73697032  0.27148674     0.27200
H1225       H  0.37204505  0.79381161  0.35131553     0.12900
N1226       N  0.31360889  0.77707266  0.38968871    -0.82800
H1227       H  0.27309288  0.70444537  0.27240110     0.17800
N1228       N  0.33130882  0.72486688  0.23018744    -0.81400
H1229       H  0.33676062  0.79593450  0.40183742     0.33400
H1230       H  0.30348459  0.75786527  0.41295086     0.37900
H1231       H  0.30808762  0.70603321  0.21815863     0.33400
H1232       H  0.34028258  0.74497633  0.20828898     0.30100
H1233       H  0.42261552  0.86021035  0.28525105     0.33400
H1234       H  0.38759609  0.83355970  0.25780186     0.30100
H1235       H  0.47317095  0.75402409  0.25223283     0.37900
H1236       H  0.43740062  0.73085499  0.22485741     0.33400
C1237       C  0.79716419  0.64889099  0.16639146    -0.20300
C1238       C  0.80785388  0.63149944  0.19412332     0.35900
C1239       C  0.81849302  0.60989637  0.17674684    -0.26300
C1240       C  0.81887161  0.60498881  0.13174976     0.02300
C1241       C  0.80515081  0.61968689  0.10404736     0.27100
C1242       C  0.79452976  0.64144223  0.12161318    -0.25400
N1243       N  0.80891128  0.63654506  0.24015053    -0.82800
H1244       H  0.82747050  0.59760448  0.19858360     0.12900
C1245       C  0.83223652  0.58315190  0.11480883     0.02300
N1246       N  0.80165159  0.61224845  0.05830223    -0.81400
H1247       H  0.78634639  0.65441610  0.09977772     0.17800
C1248       C  0.81245118  0.54808012  0.11907864    -0.26200
C1249       C  0.82379002  0.52633998  0.10467132     0.35800
C1250       C  0.85585515  0.53944221  0.08471865    -0.20300
C1251       C  0.87594881  0.57475691  0.08088721    -0.25500
C1252       C  0.86487130  0.59671577  0.09669360     0.27200
H1253       H  0.78769517  0.53733601  0.13357937     0.12900
N1254       N  0.80175729  0.49067041  0.10904190    -0.82800
H1255       H  0.90046998  0.58527679  0.06583329     0.17800
N1256       N  0.88721803  0.63265876  0.09607396    -0.81400
H1257       H  0.77944832  0.48396337  0.09230677     0.33400
H1258       H  0.79598851  0.48525032  0.14195548     0.37900
H1259       H  0.91057502  0.63850903  0.08324316     0.33400
H1260       H  0.87725023  0.64330510  0.07514727     0.30100
H1261       H  0.79044450  0.62437138  0.04272406     0.33400
H1262       H  0.82563597  0.62224203  0.04494142     0.30100
H1263       H  0.79371045  0.61308486  0.25473246     0.37900
H1264       H  0.83365980  0.64571322  0.25069724     0.33400
C1265       C  0.08230040  0.43283837  0.90775227    -0.20300
C1266       C  0.09015378  0.44924539  0.94850825     0.35900
C1267       C  0.07105995  0.46296003  0.96493860    -0.26300
C1268       C  0.04367155  0.46070207  0.94174079     0.02300
C1269       C  0.03504180  0.44341787  0.90132647     0.27100
C1270       C  0.05440099  0.42966367  0.88482640    -0.25400
N1271       N  0.11814711  0.45258539  0.97309126    -0.82800
H1272       H  0.07802221  0.47591477  0.99596693     0.12900
C1273       C  0.02323554  0.47469467  0.96160387     0.02300
N1274       N  0.00691859  0.44021876  0.87693731    -0.81400
H1275       H  0.04882575  0.41809512  0.85290256     0.17800
C1276       C  0.01743098  0.49805191  0.93898142    -0.26200
C1277       C  0.99490819  0.50811972  0.95521655     0.35800
C1278       C  0.97761069  0.49443086  0.99454118    -0.20300
C1279       C  0.98678240  0.47455668  0.01936118    -0.25500
C1280       C  0.00859200  0.46393864  0.00309558     0.27200
H1281       H  0.02942378  0.50736961  0.90778375     0.12900
N1282       N  0.98760227  0.53017731  0.93042652    -0.82800
H1283       H  0.97329880  0.46351973  0.04923527     0.17800
N1284       N  0.01388478  0.44019294  0.02731539    -0.81400
H1285       H  0.00204740  0.53787568  0.90208608     0.33400
H1286       H  0.99506244  0.55192137  0.94901949     0.37900
H1287       H  0.00129322  0.43466872  0.05709778     0.33400
H1288       H  0.00309389  0.41762274  0.00966961     0.30100
H1289       H  0.00409583  0.42721311  0.84788472     0.33400
H1290       H  0.98518626  0.42541689  0.89517276     0.30100
H1291       H  0.13493694  0.47829426  0.97822281     0.37900
H1292       H  0.10926164  0.44124020  0.00335206     0.33400
C1293       C  0.85029418  0.27662331  0.56620043    -0.20300
C1294       C  0.82085817  0.25827688  0.59189966     0.35900
C1295       C  0.80974384  0.22477700  0.60413344    -0.26300
C1296       C  0.82708936  0.20831159  0.59183022     0.02300
C1297       C  0.85681230  0.22634992  0.56687790     0.27100
C1298       C  0.86810427  0.26024841  0.55433084    -0.25400
N1299       N  0.80162959  0.27337343  0.60554300    -0.82800
H1300       H  0.78705935  0.21136841  0.62341990     0.12900
C1301       C  0.81459389  0.17292022  0.60760395     0.02300
N1302       N  0.87529309  0.21012335  0.55418751    -0.81400
H1303       H  0.89023603  0.27348409  0.53408089     0.17800
C1304       C  0.80402536  0.14594770  0.57808076    -0.26200
C1305       C  0.79441380  0.11298885  0.59246805     0.35800
C1306       C  0.79593008  0.10674504  0.63713874    -0.20300
C1307       C  0.80342506  0.13311443  0.66667928    -0.25500
C1308       C  0.81283654  0.16593310  0.65252050     0.27200
H1309       H  0.80402836  0.15065812  0.54359472     0.12900
N1310       N  0.78476683  0.08643319  0.56135808    -0.82800
H1311       H  0.80455325  0.12875092  0.70107653     0.17800
N1312       N  0.82213410  0.19260682  0.68366926    -0.81400
H1313       H  0.76375985  0.08360348  0.54450827     0.33400
H1314       H  0.80437403  0.09398801  0.53903966     0.37900
H1315       H  0.81938225  0.18337929  0.71535923     0.33400
H1316       H  0.84771943  0.21001158  0.67946081     0.30100
H1317       H  0.89639152  0.22656760  0.53588770     0.33400
H1318       H  0.88428899  0.20472822  0.58247969     0.30100
H1319       H  0.80035519  0.27261260  0.63947359     0.37900
H1320       H  0.77719352  0.25879533  0.59331882     0.33400
C1321       C  0.98056254  0.44951617  0.49245173    -0.20300
C1322       C  0.99419960  0.45494565  0.44998818     0.35900
C1323       C  0.01752436  0.48819067  0.43603574    -0.26300
C1324       C  0.02738975  0.51632195  0.46327486     0.02300
C1325       C  0.01515334  0.51087683  0.50618031     0.27100
C1326       C  0.99245675  0.47775987  0.52038626    -0.25400
N1327       N  0.98285925  0.42713519  0.42023864    -0.82800
H1328       H  0.02732290  0.49233864  0.40323480     0.12900
C1329       C  0.05082543  0.55132525  0.44679835     0.02300
N1330       N  0.02445672  0.53919583  0.53454768    -0.81400
H1331       H  0.98215739  0.47427333  0.55285950     0.17800
C1332       C  0.03813973  0.57008393  0.42628039    -0.26200
C1333       C  0.05988358  0.60273509  0.40900853     0.35800
C1334       C  0.09521068  0.61746033  0.41347798    -0.20300
C1335       C  0.10747737  0.59872260  0.43528070    -0.25500
C1336       C  0.08588351  0.56599354  0.45143267     0.27200
H1337       H  0.01113871  0.55887323  0.42294402     0.12900
N1338       N  0.04607405  0.62087026  0.38751246    -0.82800
H1339       H  0.13438748  0.60907860  0.43822183     0.17800
N1340       N  0.09954597  0.54709078  0.47128433    -0.81400
H1341       H  0.01983230  0.60762952  0.38991517     0.33400
H1342       H  0.05145010  0.62161501  0.35442078     0.37900
H1343       H  0.12584147  0.56099690  0.47115972     0.33400
H1344       H  0.09224243  0.54328233  0.50387375     0.30100
H1345       H  0.01252501  0.53109095  0.56462877     0.33400
H1346       H  0.05027456  0.55069974  0.54057545     0.30100
H1347       H  0.99081721  0.41101039  0.43240878     0.37900
H1348       H  0.99435230  0.43547535  0.38996520     0.33400
C1349       C  0.86896688  0.41025725  0.64104233    -0.20300
C1350       C  0.86531445  0.38597553  0.67228090     0.35900
C1351       C  0.86615127  0.39332979  0.71658307    -0.26300
C1352       C  0.87057207  0.42431933  0.73084915     0.02300
C1353       C  0.87532864  0.44909868  0.69985292     0.27100
C1354       C  0.87475194  0.44188597  0.65519246    -0.25400
N1355       N  0.86109029  0.35395472  0.65899523    -0.82800
H1356       H  0.86373790  0.37480545  0.74032732     0.12900
C1357       C  0.87163377  0.43044024  0.77849744     0.02300
N1358       N  0.88014084  0.48117582  0.71378463    -0.81400
H1359       H  0.87772907  0.46058474  0.63138773     0.17800
C1360       C  0.89990277  0.45840872  0.79658495    -0.26200
C1361       C  0.90334502  0.46340493  0.84175758     0.35800
C1362       C  0.87802389  0.43981468  0.86969506    -0.20300
C1363       C  0.85014237  0.41141818  0.85158674    -0.25500
C1364       C  0.84619759  0.40693230  0.80634145     0.27200
H1365       H  0.91989761  0.47591082  0.77540871     0.12900
N1366       N  0.93312958  0.49168114  0.85941782    -0.82800
H1367       H  0.83098926  0.39297347  0.87264647     0.17800
N1368       N  0.81632766  0.37874258  0.78850206    -0.81400
H1369       H  0.94908082  0.50685115  0.83461338     0.33400
H1370       H  0.94610390  0.48187530  0.87612342     0.37900
H1371       H  0.80010946  0.36387778  0.81328491     0.33400
H1372       H  0.80358627  0.38841481  0.77095628     0.30100
H1373       H  0.88343398  0.49657166  0.68703525     0.33400
H1374       H  0.85805062  0.47673577  0.72925492     0.30100
H1375       H  0.88323261  0.35865324  0.64341501     0.37900
H1376       H  0.85821653  0.33884512  0.68591286     0.33400
C1377       C  0.90263081  0.41359441  0.36804501    -0.20300
C1378       C  0.89772936  0.43957478  0.35178106     0.35900
C1379       C  0.89537719  0.44269261  0.30656217    -0.26300
C1380       C  0.89727828  0.42002408  0.27761557     0.02300
C1381       C  0.90356483  0.39502297  0.29366718     0.27100
C1382       C  0.90669574  0.39240987  0.33859085    -0.25400
N1383       N  0.89305952  0.46126055  0.38104670    -0.82800
H1384       H  0.89044213  0.46182060  0.29386407     0.12900
C1385       C  0.88961314  0.42059832  0.23099222     0.02300
N1386       N  0.90525149  0.37145702  0.26437687    -0.81400
H1387       H  0.91068577  0.37253497  0.35082178     0.17800
C1388       C  0.91498386  0.42971152  0.19993575    -0.26200
C1389       C  0.90821276  0.42958711  0.15528243     0.35800
C1390       C  0.87526873  0.42042029  0.14152529    -0.20300
C1391       C  0.84980034  0.41048623  0.17303205    -0.25500
C1392       C  0.85659435  0.41030468  0.21746220     0.27200
H1393       H  0.94019500  0.43701386  0.21069580     0.12900
N1394       N  0.93490388  0.43960997  0.12427973    -0.82800
H1395       H  0.82439855  0.40307444  0.16307038     0.17800
N1396       N  0.83011518  0.39970989  0.24900391    -0.81400
H1397       H  0.95782152  0.44737748  0.14002365     0.33400
H1398       H  0.92972768  0.41818702  0.10621885     0.37900
H1399       H  0.80726207  0.39309538  0.23379566     0.33400
H1400       H  0.82699897  0.37780879  0.26381920     0.30100
H1401       H  0.91005838  0.35460321  0.28141074     0.33400
H1402       H  0.88152062  0.35702198  0.25011414     0.30100
H1403       H  0.87026576  0.44624834  0.39707098     0.37900
H1404       H  0.89032653  0.47936844  0.36376794     0.33400
C1405       C  0.68470203  0.54110196  0.57500470    -0.20300
C1406       C  0.69586121  0.52834306  0.60906351     0.35900
C1407       C  0.72858105  0.54758006  0.62593430    -0.26300
C1408       C  0.75105960  0.57991533  0.61009169     0.02300
C1409       C  0.73949812  0.59371088  0.57769097     0.27100
C1410       C  0.70649831  0.57416203  0.56045691    -0.25400
N1411       N  0.67427074  0.49510344  0.62581404    -0.82800
H1412       H  0.73681181  0.53658160  0.65076055     0.12900
C1413       C  0.78650968  0.59871268  0.62753648     0.02300
N1414       N  0.76152456  0.62727277  0.56182401    -0.81400
H1415       H  0.69852907  0.58404849  0.53393611     0.17800
C1416       C  0.81398722  0.61124131  0.59886531    -0.26200
C1417       C  0.84734833  0.63201277  0.61349850     0.35800
C1418       C  0.85371108  0.64141611  0.65793898    -0.20300
C1419       C  0.82667711  0.62511004  0.68719145    -0.25500
C1420       C  0.79323409  0.60440744  0.67256843     0.27200
H1421       H  0.80941843  0.60585094  0.56444246     0.12900
N1422       N  0.87378497  0.64564583  0.58171091    -0.82800
H1423       H  0.83105740  0.63236177  0.72115424     0.17800
N1424       N  0.76593938  0.59117931  0.70315498    -0.81400
H1425       H  0.87396331  0.62528864  0.56665725     0.33400
H1426       H  0.89725279  0.65958777  0.59668267     0.37900
H1427       H  0.77505131  0.59762134  0.73492815     0.33400
H1428       H  0.75176086  0.60279476  0.69707662     0.30100
H1429       H  0.74946560  0.63362364  0.53799090     0.33400
H1430       H  0.76670080  0.64398672  0.58771282     0.30100
H1431       H  0.68605414  0.48091013  0.62105070     0.37900
H1432       H  0.67174312  0.49709692  0.65926510     0.33400
C1433       C  0.51845601  0.50035344  0.48826431    -0.20300
C1434       C  0.51237874  0.50610683  0.44483671     0.35900
C1435       C  0.47912087  0.49570750  0.43111290    -0.26300
C1436       C  0.45156711  0.47948805  0.45957825     0.02300
C1437       C  0.45780818  0.47493126  0.50326096     0.27100
C1438       C  0.49101106  0.48609087  0.51722303    -0.25400
N1439       N  0.53943699  0.52011657  0.41394771    -0.82800
H1440       H  0.47448497  0.49934584  0.39758799     0.12900
C1441       C  0.41631536  0.46654322  0.44296839     0.02300
N1442       N  0.43018809  0.45773399  0.53296825    -0.81400
H1443       H  0.49512647  0.48103809  0.55036579     0.17800
C1444       C  0.40353400  0.44182249  0.40992997    -0.26200
C1445       C  0.37093893  0.42946676  0.39205614     0.35800
C1446       C  0.35017676  0.44166751  0.40794113    -0.20300
C1447       C  0.36255483  0.46524911  0.44229582    -0.25500
C1448       C  0.39509549  0.47811081  0.45946199     0.27200
H1449       H  0.41943672  0.43261226  0.39735189     0.12900
N1450       N  0.35958029  0.40565977  0.35679374    -0.82800
H1451       H  0.34730291  0.47529643  0.45468657     0.17800
N1452       N  0.40610930  0.50432102  0.49169709    -0.81400
H1453       H  0.37749592  0.39873155  0.34959877     0.33400
H1454       H  0.35768300  0.41789360  0.32919806     0.37900
H1455       H  0.39241955  0.49350330  0.52005278     0.33400
H1456       H  0.43156994  0.51492820  0.49922288     0.30100
H1457       H  0.41541344  0.43288336  0.52199670     0.33400
H1458       H  0.43889485  0.45640778  0.56388053     0.30100
H1459       H  0.55614435  0.54501596  0.42336327     0.37900
H1460       H  0.53057614  0.52122219  0.38305963     0.33400
C1461       C  0.68779901  0.47808784  0.43836667    -0.20300
C1462       C  0.68618161  0.45186765  0.41287620     0.35900
C1463       C  0.71259500  0.44506524  0.41449143    -0.26300
C1464       C  0.73990251  0.46328318  0.44269816     0.02300
C1465       C  0.74331805  0.49203689  0.46445224     0.27100
C1466       C  0.71743440  0.49968774  0.46102731    -0.25400
N1467       N  0.65647694  0.43044261  0.38822037    -0.82800
H1468       H  0.71033262  0.42357999  0.39674885     0.12900
C1469       C  0.76185294  0.44932130  0.45377577     0.02300
N1470       N  0.77145501  0.51152804  0.49285509    -0.81400
H1471       H  0.71841604  0.51968159  0.48097179     0.17800
C1472       C  0.79675492  0.46960117  0.44958625    -0.26200
C1473       C  0.81827059  0.45805632  0.46312662     0.35800
C1474       C  0.80468529  0.42507869  0.48021708    -0.20300
C1475       C  0.76962642  0.40462558  0.48388490    -0.25500
C1476       C  0.74808368  0.41652238  0.47137933     0.27200
H1477       H  0.80744166  0.49487077  0.43647236     0.12900
N1478       N  0.85389775  0.48047807  0.46072867    -0.82800
H1479       H  0.75894086  0.37935104  0.49695731     0.17800
N1480       N  0.71232659  0.39571132  0.47735965    -0.81400
H1481       H  0.85994383  0.48873020  0.42863461     0.33400
H1482       H  0.85996521  0.50159908  0.47999326     0.37900
H1483       H  0.70631040  0.37228547  0.49042802     0.33400
H1484       H  0.70498913  0.40757375  0.50030728     0.30100
H1485       H  0.77009508  0.53176989  0.50627633     0.33400
H1486       H  0.76972064  0.49601755  0.51879165     0.30100
H1487       H  0.64657514  0.40569220  0.39947465     0.37900
H1488       H  0.66350662  0.43111604  0.35582241     0.33400
C1489       C  0.31512866  0.11662069  0.15630807    -0.20300
C1490       C  0.33053346  0.14522327  0.18400659     0.35900
C1491       C  0.35386955  0.17732924  0.16739415    -0.26300
C1492       C  0.36265883  0.18206900  0.12328039     0.02300
C1493       C  0.34964834  0.15322856  0.09605937     0.27100
C1494       C  0.32596176  0.12093997  0.11273919    -0.25400
N1495       N  0.32164603  0.14201039  0.22905298    -0.82800
H1496       H  0.36443868  0.19897159  0.18897806     0.12900
C1497       C  0.38551972  0.21734686  0.10660303     0.02300
N1498       N  0.36057447  0.15673276  0.05165923    -0.81400
H1499       H  0.31439183  0.09949226  0.09088184     0.17800
C1500       C  0.42024707  0.23299431  0.11404468    -0.26200
C1501       C  0.44264883  0.26647962  0.10040515     0.35800
C1502       C  0.43034553  0.28503817  0.07732498    -0.20300
C1503       C  0.39534185  0.26936313  0.07054333    -0.25500
C1504       C  0.37285631  0.23622693  0.08584477     0.27200
H1505       H  0.42996949  0.21893958  0.13088946     0.12900
N1506       N  0.47806668  0.28107835  0.10874663    -0.82800
H1507       H  0.38543607  0.28305620  0.05325583     0.17800
N1508       N  0.33711474  0.22212947  0.08161289    -0.81400
H1509       H  0.48313798  0.26341901  0.12301523     0.33400
H1510       H  0.48480506  0.30019679  0.13180255     0.37900
H1511       H  0.33176967  0.23948341  0.06701288     0.33400
H1512       H  0.32789374  0.20140855  0.06067106     0.30100
H1513       H  0.34920771  0.13319384  0.03626840     0.33400
H1514       H  0.35232460  0.17116570  0.03524200     0.30100
H1515       H  0.31202385  0.15793575  0.23555294     0.37900
H1516       H  0.34358319  0.15039267  0.24739707     0.33400
C1517       C  0.79272355  0.48492971  0.95095909    -0.20300
C1518       C  0.77393427  0.46226892  0.91741603     0.35900
C1519       C  0.73899785  0.44958206  0.91543624    -0.26300
C1520       C  0.72346161  0.46030406  0.94558636     0.02300
C1521       C  0.74324111  0.48676379  0.97467401     0.27100
C1522       C  0.77790598  0.49920170  0.97657023    -0.25400
N1523       N  0.79002341  0.45091184  0.88729356    -0.82800
H1524       H  0.72364975  0.42988414  0.89236376     0.12900
C1525       C  0.68668399  0.44087318  0.95154580     0.02300
N1526       N  0.72757257  0.49827519  0.00530973    -0.81400
H1527       H  0.79259594  0.51672089  0.00224395     0.17800
C1528       C  0.67322409  0.41346603  0.98047800    -0.26200
C1529       C  0.63985970  0.39897034  0.99528461     0.35800
C1530       C  0.62014256  0.41269952  0.98120213    -0.20300
C1531       C  0.63296446  0.43841506  0.94972390    -0.25500
C1532       C  0.66601242  0.45242665  0.93437245     0.27200
H1533       H  0.68938115  0.40461228  0.99325218     0.12900
N1534       N  0.62657970  0.37162674  0.02590422    -0.82800
H1535       H  0.61731816  0.44815357  0.93781689     0.17800
N1536       N  0.67871543  0.47839046  0.90176732    -0.81400
H1537       H  0.64436871  0.36441823  0.03267353     0.33400
H1538       H  0.62221819  0.38051267  0.05504851     0.37900
H1539       H  0.65996093  0.48353238  0.89198966     0.33400
H1540       H  0.69791091  0.50059871  0.91556280     0.30100
H1541       H  0.74556939  0.51659446  0.02599614     0.33400
H1542       H  0.71701783  0.51021157  0.98788978     0.30100
H1543       H  0.80027159  0.43871620  0.90466721     0.37900
H1544       H  0.77236499  0.43315856  0.86577174     0.33400
C1545       C  0.46357624  0.44726026  0.98851126    -0.20300
C1546       C  0.47758186  0.47527579  0.01713376     0.35900
C1547       C  0.48432851  0.50725215  0.00238608    -0.26300
C1548       C  0.47780598  0.51217611  0.95927150     0.02300
C1549       C  0.46097275  0.48369237  0.93179733     0.27100
C1550       C  0.45356541  0.45148612  0.94692316    -0.25400
N1551       N  0.48849684  0.47183460  0.05963031    -0.82800
H1552       H  0.49711748  0.52895118  0.02367952     0.12900
C1553       C  0.49136602  0.54748292  0.94249920     0.02300
N1554       N  0.45327353  0.48794969  0.88782748    -0.81400
H1555       H  0.44345101  0.43039861  0.92449309     0.17800
C1556       C  0.51865519  0.56132102  0.91333704    -0.26200
C1557       C  0.53247313  0.59463535  0.89697642     0.35800
C1558       C  0.51850455  0.61470022  0.90963867    -0.20300
C1559       C  0.49164390  0.60078620  0.93973684    -0.25500
C1560       C  0.47807669  0.56784032  0.95594261     0.27200
H1561       H  0.52920713  0.54594504  0.90321842     0.12900
N1562       N  0.55982167  0.60753580  0.86656539    -0.82800
H1563       H  0.48018138  0.61530241  0.95002152     0.17800
N1564       N  0.44988360  0.55525941  0.98478320    -0.81400
H1565       H  0.56635394  0.58925698  0.85950595     0.33400
H1566       H  0.58076362  0.62744813  0.88178294     0.37900
H1567       H  0.45644932  0.54881691  0.01425606     0.33400
H1568       H  0.42995531  0.53346002  0.97107186     0.30100
H1569       H  0.44152988  0.46478401  0.87149295     0.33400
H1570       H  0.43583792  0.49620598  0.88904503     0.30100
H1571       H  0.46711327  0.45480435  0.07705506     0.37900
H1572       H  0.49925293  0.49477206  0.07643870     0.33400
C1573       C  0.54017931  0.42574660  0.13607474    -0.20300
C1574       C  0.54837941  0.45862025  0.14899709     0.35900
C1575       C  0.54904189  0.46596808  0.19360033    -0.26300
C1576       C  0.54164361  0.44116901  0.22530951     0.02300
C1577       C  0.53255292  0.40820091  0.21238334     0.27100
C1578       C  0.53176332  0.40083204  0.16805931    -0.25400
N1579       N  0.55667250  0.48453090  0.11713877    -0.82800
H1580       H  0.55616261  0.49133029  0.20384121     0.12900
C1581       C  0.54679297  0.45054873  0.27198150     0.02300
N1582       N  0.52492484  0.38251032  0.24441757    -0.81400
H1583       H  0.52473710  0.37535464  0.15849587     0.17800
C1584       C  0.51968070  0.43536143  0.30111154    -0.26200
C1585       C  0.52468159  0.44087705  0.34628007     0.35800
C1586       C  0.55769360  0.46168729  0.36253227    -0.20300
C1587       C  0.58442543  0.47790180  0.33273612    -0.25500
C1588       C  0.57939289  0.47234611  0.28792275     0.27200
H1589       H  0.49463033  0.41867078  0.28850802     0.12900
N1590       N  0.49649958  0.42494697  0.37536351    -0.82800
H1591       H  0.60984691  0.49421881  0.34437915     0.17800
N1592       N  0.60750787  0.48781939  0.25859164    -0.81400
H1593       H  0.47426223  0.40973558  0.35812822     0.33400
H1594       H  0.49367162  0.44401610  0.38977566     0.37900
H1595       H  0.62982166  0.50339956  0.27546599     0.33400
H1596       H  0.61030041  0.46857268  0.24462373     0.30100
H1597       H  0.51833589  0.35948285  0.22951932     0.33400
H1598       H  0.54690245  0.38959747  0.26216861     0.30100
H1599       H  0.57904229  0.48936561  0.10208978     0.37900
H1600       H  0.56157542  0.50705033  0.13208463     0.33400
C1601       C  0.55592468  0.42713699  0.63463789    -0.20300
C1602       C  0.57675089  0.45286292  0.66426473     0.35900
C1603       C  0.57024711  0.44783882  0.70896092    -0.26300
C1604       C  0.54316295  0.41785075  0.72495957     0.02300
C1605       C  0.52162174  0.39233641  0.69512634     0.27100
C1606       C  0.52810286  0.39756978  0.65028478    -0.25400
N1607       N  0.60424745  0.48424744  0.64872138    -0.82800
H1608       H  0.58627864  0.46760479  0.73160051     0.12900
C1609       C  0.53777066  0.41484422  0.77279025     0.02300
N1610       N  0.49358519  0.36064278  0.70890435    -0.81400
H1611       H  0.51206443  0.37780655  0.62765974     0.17800
C1612       C  0.50907351  0.41382151  0.78995714    -0.26200
C1613       C  0.50362247  0.41229106  0.83503031     0.35800
C1614       C  0.52743854  0.41180622  0.86368561    -0.20300
C1615       C  0.55672276  0.41392179  0.84653439    -0.25500
C1616       C  0.56202865  0.41521920  0.80133750     0.27200
H1617       H  0.49098316  0.41447444  0.76798404     0.12900
N1618       N  0.47428654  0.41187845  0.85185524    -0.82800
H1619       H  0.57497535  0.41344274  0.86837840     0.17800
N1620       N  0.59175050  0.41656547  0.78422121    -0.81400
H1621       H  0.45914805  0.41199772  0.82655642     0.33400
H1622       H  0.48263408  0.43439814  0.86902370     0.37900
H1623       H  0.60712242  0.41679962  0.80943338     0.33400
H1624       H  0.58410534  0.39433897  0.76661890     0.30100
H1625       H  0.49794525  0.34151246  0.69824256     0.33400
H1626       H  0.49198581  0.35864276  0.74265336     0.30100
H1627       H  0.59410035  0.49602187  0.63004563     0.37900
H1628       H  0.61703786  0.50053257  0.67459397     0.33400
C1629       C  0.42372270  0.11005856  0.57698594    -0.20300
C1630       C  0.38930084  0.09453650  0.56542248     0.35900
C1631       C  0.36935112  0.10759379  0.58204874    -0.26300
C1632       C  0.38308556  0.13621485  0.60937550     0.02300
C1633       C  0.41710007  0.15108086  0.62175278     0.27100
C1634       C  0.43668963  0.13761749  0.60617140    -0.25400
N1635       N  0.37490717  0.06644133  0.53584067    -0.82800
H1636       H  0.34306982  0.09584383  0.57288978     0.12900
C1637       C  0.36172081  0.15034660  0.62508795     0.02300
N1638       N  0.43201213  0.18062825  0.64896836    -0.81400
H1639       H  0.46298551  0.14993642  0.61543373     0.17800
C1640       C  0.35615464  0.15126907  0.66983115    -0.26200
C1641       C  0.33293994  0.16022671  0.68555312     0.35800
C1642       C  0.31498310  0.16912978  0.65603267    -0.20300
C1643       C  0.32363523  0.17203186  0.61176501    -0.25500
C1644       C  0.34618925  0.16209421  0.59589764     0.27200
H1645       H  0.36829729  0.14280823  0.69266952     0.12900
N1646       N  0.32560185  0.15666945  0.73127132    -0.82800
H1647       H  0.30936118  0.17774504  0.58871020     0.17800
N1648       N  0.35199295  0.16218782  0.55001555    -0.81400
H1649       H  0.34780213  0.17334976  0.74763344     0.33400
H1650       H  0.30827250  0.16430399  0.73879998     0.37900
H1651       H  0.33814777  0.17076139  0.53279917     0.33400
H1652       H  0.37740974  0.17955548  0.54437413     0.30100
H1653       H  0.45730693  0.18862610  0.65512550     0.33400
H1654       H  0.43165680  0.20006507  0.63169481     0.30100
H1655       H  0.38608317  0.07532850  0.50549413     0.37900
H1656       H  0.34920531  0.05745195  0.53165513     0.33400
C1657       C  0.61619118  0.16594358  0.47931492    -0.20300
C1658       C  0.62869995  0.16167567  0.43924298     0.35900
C1659       C  0.66226312  0.18420166  0.42780708    -0.26300
C1660       C  0.68328468  0.21095745  0.45520668     0.02300
C1661       C  0.67057165  0.21592070  0.49469504     0.27100
C1662       C  0.63718084  0.19340569  0.50609283    -0.25400
N1663       N  0.60733585  0.13474005  0.41015451    -0.82800
H1664       H  0.67218740  0.18085343  0.39747676     0.12900
C1665       C  0.71869603  0.23296034  0.44274992     0.02300
N1666       N  0.69065462  0.24329727  0.52404189    -0.81400
H1667       H  0.62780876  0.19712628  0.53667022     0.17800
C1668       C  0.72756879  0.26223253  0.41890934    -0.26200
C1669       C  0.76124816  0.28775857  0.41559995     0.35800
C1670       C  0.78620254  0.28394053  0.43745322    -0.20300
C1671       C  0.77771303  0.25267888  0.45588897    -0.25500
C1672       C  0.74387672  0.22713778  0.45932594     0.27200
H1673       H  0.70809253  0.26625892  0.40540751     0.12900
N1674       N  0.76904721  0.31834024  0.39312183    -0.82800
H1675       H  0.79684722  0.24979665  0.47269943     0.17800
N1676       N  0.73480856  0.19632426  0.48204204    -0.81400
H1677       H  0.76114880  0.31183349  0.36091552     0.33400
H1678       H  0.79504605  0.33470544  0.39163123     0.37900
H1679       H  0.75637415  0.19594173  0.49194931     0.33400
H1680       H  0.72213077  0.19595727  0.51038964     0.30100
H1681       H  0.69319539  0.23281471  0.55293258     0.33400
H1682       H  0.71492569  0.25908314  0.51229648     0.30100
H1683       H  0.58832906  0.13921914  0.39950105     0.37900
H1684       H  0.62059837  0.13493914  0.38247879     0.33400
C1685       C  0.46512064  0.98432178  0.48960425    -0.20300
C1686       C  0.47536624  0.96664241  0.51791460     0.35900
C1687       C  0.48669331  0.94565587  0.50059900    -0.26300
C1688       C  0.48726371  0.94075279  0.45569621     0.02300
C1689       C  0.47372694  0.95534492  0.42764237     0.27100
C1690       C  0.46290191  0.97697801  0.44483784    -0.25400
N1691       N  0.47577614  0.97037087  0.56436140    -0.82800
H1692       H  0.49566373  0.93340800  0.52253105     0.12900
C1693       C  0.50068128  0.91899513  0.43915099     0.02300
N1694       N  0.47112791  0.94831306  0.38182009    -0.81400
H1695       H  0.45528577  0.99027437  0.42269875     0.17800
C1696       C  0.48021426  0.88386723  0.44148890    -0.26200
C1697       C  0.49165584  0.86220000  0.42727236     0.35800
C1698       C  0.52446448  0.87551577  0.40981470    -0.20300
C1699       C  0.54516515  0.91083521  0.40771085    -0.25500
C1700       C  0.53389353  0.93268334  0.42307806     0.27200
H1701       H  0.45490985  0.87307757  0.45424232     0.12900
N1702       N  0.46911777  0.82646274  0.42910306    -0.82800
H1703       H  0.57025133  0.92139657  0.39435884     0.17800
N1704       N  0.55641858  0.96859263  0.42379032    -0.81400
H1705       H  0.44770797  0.82069845  0.41079236     0.33400
H1706       H  0.46174896  0.81987316  0.46140649     0.37900
H1707       H  0.58012522  0.97452488  0.41214599     0.33400
H1708       H  0.54716425  0.97965581  0.40241243     0.30100
H1709       H  0.46004823  0.96042303  0.36586678     0.33400
H1710       H  0.49540990  0.95863013  0.36930604     0.30100
H1711       H  0.46428674  0.98412058  0.57345430     0.37900
H1712       H  0.46063056  0.94631556  0.57750996     0.33400
C1713       C  0.54748931  0.35006500  0.46994584    -0.20300
C1714       C  0.52918079  0.33739432  0.43068840     0.35900
C1715       C  0.51667488  0.30334711  0.41928923    -0.26300
C1716       C  0.52242770  0.28212030  0.44612164     0.02300
C1717       C  0.54191744  0.29510132  0.48413889     0.27100
C1718       C  0.55434662  0.32894116  0.49555416    -0.25400
N1719       N  0.52344347  0.35904251  0.40256718    -0.82800
H1720       H  0.50204982  0.29318359  0.38983063     0.12900
C1721       C  0.50714410  0.24581378  0.43593355     0.02300
N1722       N  0.54889351  0.27371029  0.51107667    -0.81400
H1723       H  0.56867505  0.33857993  0.52532895     0.17800
C1724       C  0.52666855  0.23514248  0.41349655    -0.26200
C1725       C  0.51944999  0.20158502  0.41670501     0.35800
C1726       C  0.49249800  0.17877752  0.44299145    -0.20300
C1727       C  0.47035364  0.18827257  0.46038065    -0.25500
C1728       C  0.47728825  0.22164430  0.45703142     0.27200
H1729       H  0.54924968  0.25363001  0.39686857     0.12900
N1730       N  0.54084687  0.19109725  0.39641230    -0.82800
H1731       H  0.44960752  0.17072961  0.48065176     0.17800
N1732       N  0.45530714  0.23070536  0.47884419    -0.81400
H1733       H  0.55972415  0.21090797  0.37840944     0.33400
H1734       H  0.52612475  0.17197786  0.37424837     0.37900
H1735       H  0.43149102  0.21668527  0.46465036     0.33400
H1736       H  0.46271646  0.25600489  0.47372937     0.30100
H1737       H  0.56431985  0.28735607  0.53723502     0.33400
H1738       H  0.52613818  0.25519231  0.52443840     0.30100
H1739       H  0.54685448  0.37786546  0.39114019     0.37900
H1740       H  0.50948941  0.34574556  0.37526999     0.33400
C1741       C  0.85415341  0.17036525  0.14857421    -0.20300
C1742       C  0.84817926  0.17486689  0.10453848     0.35900
C1743       C  0.81528782  0.16597678  0.09084901    -0.26300
C1744       C  0.78822072  0.15344827  0.12022073     0.02300
C1745       C  0.79496648  0.15197750  0.16463389     0.27100
C1746       C  0.82756214  0.16049229  0.17831794    -0.25400
N1747       N  0.87482367  0.18605671  0.07322298    -0.82800
H1748       H  0.81047932  0.16779937  0.05678194     0.12900
C1749       C  0.75281082  0.13997394  0.10386870     0.02300
N1750       N  0.76824921  0.13965865  0.19573676    -0.81400
H1751       H  0.83140558  0.15672555  0.21212821     0.17800
C1752       C  0.73883925  0.11300638  0.07400154    -0.26200
C1753       C  0.70534962  0.09894912  0.05859265     0.35800
C1754       C  0.68488140  0.11183813  0.07357765    -0.20300
C1755       C  0.69906110  0.13877388  0.10372924    -0.25500
C1756       C  0.73269083  0.15325343  0.11827126     0.27200
H1757       H  0.75419110  0.10275606  0.06272832     0.12900
N1758       N  0.69232143  0.07189380  0.02745542    -0.82800
H1759       H  0.68433721  0.14982364  0.11461943     0.17800
N1760       N  0.74681088  0.18210400  0.14668125    -0.81400
H1761       H  0.71059656  0.06566881  0.01931213     0.33400
H1762       H  0.67268201  0.05060191  0.04238673     0.37900
H1763       H  0.76607933  0.20236529  0.12976483     0.33400
H1764       H  0.72891421  0.18900957  0.15417897     0.30100
H1765       H  0.76653143  0.11840902  0.21079337     0.33400
H1766       H  0.77474179  0.15829782  0.21943383     0.30100
H1767       H  0.89290767  0.21086467  0.08122184     0.37900
H1768       H  0.86607229  0.18683223  0.04212403     0.33400
C1769       C  0.56101269  0.17946199  0.99149541    -0.20300
C1770       C  0.55793153  0.18341159  0.94670072     0.35900
C1771       C  0.54440086  0.20314266  0.93243560    -0.26300
C1772       C  0.53391715  0.21897857  0.96240968     0.02300
C1773       C  0.53761049  0.21550390  0.00744938     0.27100
C1774       C  0.55089602  0.19545686  0.02153425    -0.25400
N1775       N  0.56740111  0.16638541  0.91569260    -0.82800
H1776       H  0.54120597  0.20529504  0.89794046     0.12900
C1777       C  0.51864131  0.23887153  0.94705354     0.02300
N1778       N  0.52727032  0.23188145  0.03861336    -0.81400
H1779       H  0.55262802  0.19160981  0.05596371     0.17800
C1780       C  0.48578167  0.22905142  0.96035718    -0.26200
C1781       C  0.47392368  0.25186651  0.95859224     0.35800
C1782       C  0.49504745  0.28453984  0.94220821    -0.20300
C1783       C  0.52571812  0.29243341  0.92283024    -0.25500
C1784       C  0.53804685  0.27016625  0.92579098     0.27200
H1785       H  0.47072708  0.20483734  0.97610507     0.12900
N1786       N  0.44247723  0.24375053  0.97853580    -0.82800
H1787       H  0.54232754  0.31784531  0.91110065     0.17800
N1788       N  0.57156922  0.28140063  0.91097385    -0.81400
H1789       H  0.43037541  0.21912915  0.99067268     0.33400
H1790       H  0.42692323  0.24443897  0.95423693     0.37900
H1791       H  0.58590443  0.28098374  0.93707032     0.33400
H1792       H  0.57056412  0.26470983  0.88707916     0.30100
H1793       H  0.53120845  0.22637753  0.07029309     0.33400
H1794       H  0.54272855  0.25794093  0.03460518     0.30100
H1795       H  0.54616747  0.15039629  0.89715826     0.37900
H1796       H  0.58527002  0.18451411  0.89484908     0.33400
C1797       C  0.35145221  0.87454298  0.91500200    -0.20300
C1798       C  0.36438932  0.86360839  0.94917071     0.35900
C1799       C  0.39735753  0.88481778  0.96456514    -0.26300
C1800       C  0.41787575  0.91712833  0.94730021     0.02300
C1801       C  0.40417329  0.92914977  0.91550560     0.27100
C1802       C  0.37115981  0.90771351  0.89958847    -0.25400
N1803       N  0.34428318  0.83038165  0.96718894    -0.82800
H1804       H  0.40749291  0.87569682  0.98942218     0.12900
C1805       C  0.45359968  0.93794275  0.96278850     0.02300
N1806       N  0.42409636  0.96286279  0.89892535    -0.81400
H1807       H  0.36162811  0.91622951  0.87325815     0.17800
C1808       C  0.48024349  0.94948648  0.93291498    -0.26200
C1809       C  0.51375275  0.97250695  0.94548291     0.35800
C1810       C  0.52093269  0.98435245  0.98875832    -0.20300
C1811       C  0.49486567  0.96953179  0.01952663    -0.25500
C1812       C  0.46128354  0.94696553  0.00698158     0.27200
H1813       H  0.47462319  0.94184668  0.89919489     0.12900
N1814       N  0.53999368  0.98692369  0.91347328    -0.82800
H1815       H  0.49995552  0.97913574  0.05252076     0.17800
N1816       N  0.43469024  0.93513444  0.03849824    -0.81400
H1817       H  0.53063654  0.97643583  0.88286492     0.33400
H1818       H  0.55787714  0.98020688  0.92180427     0.37900
H1819       H  0.44445666  0.94418034  0.06946831     0.33400
H1820       H  0.41957099  0.94538014  0.03050469     0.30100
H1821       H  0.41054333  0.96782057  0.87569845     0.33400
H1822       H  0.42882358  0.97955554  0.92469056     0.30100
H1823       H  0.35755182  0.82592150  0.99135046     0.37900
H1824       H  0.32364318  0.82965644  0.98242835     0.33400
C1825       C  0.54380679  0.08463598  0.14057755    -0.20300
C1826       C  0.51144167  0.05836378  0.15302636     0.35900
C1827       C  0.50303357  0.05304438  0.19750585    -0.26300
C1828       C  0.52648827  0.07269674  0.22961906     0.02300
C1829       C  0.55875966  0.09844976  0.21735994     0.27100
C1830       C  0.56705381  0.10410674  0.17321098    -0.25400
N1831       N  0.48710137  0.03748079  0.12085369    -0.82800
H1832       H  0.47819240  0.03333659  0.20729134     0.12900
C1833       C  0.51696034  0.06741595  0.27615878     0.02300
N1834       N  0.58289233  0.11906363  0.24993530    -0.81400
H1835       H  0.59204094  0.12403296  0.16436855     0.17800
C1836       C  0.53395377  0.05727834  0.30482325    -0.26200
C1837       C  0.52917005  0.05673464  0.35008377     0.35800
C1838       C  0.50649105  0.06624546  0.36692474    -0.20300
C1839       C  0.48833773  0.07474450  0.33756107    -0.25500
C1840       C  0.49358955  0.07578186  0.29259989     0.27200
H1841       H  0.55193188  0.05089645  0.29179014     0.12900
N1842       N  0.54762752  0.04704340  0.37857357    -0.82800
H1843       H  0.47058755  0.08175062  0.34967430     0.17800
N1844       N  0.47612713  0.08642475  0.26367658    -0.81400
H1845       H  0.56198394  0.03943625  0.36069083     0.33400
H1846       H  0.56478155  0.06848911  0.39589264     0.37900
H1847       H  0.45961843  0.09152942  0.28094011     0.33400
H1848       H  0.49402704  0.10920577  0.24956696     0.30100
H1849       H  0.60564178  0.13672220  0.23561482     0.33400
H1850       H  0.57352183  0.13281691  0.26574755     0.30100
H1851       H  0.49560913  0.02236538  0.10682678     0.37900
H1852       H  0.46407451  0.02087184  0.13547177     0.33400
C1853       C  0.55673485  0.08593719  0.86812382    -0.20300
C1854       C  0.52528209  0.07234375  0.84726659     0.35900
C1855       C  0.52418571  0.07366316  0.80159343    -0.26300
C1856       C  0.55396312  0.08884461  0.77703855     0.02300
C1857       C  0.58533814  0.10321430  0.79813170     0.27100
C1858       C  0.58638523  0.10138286  0.84345904    -0.25400
N1859       N  0.49477425  0.05620085  0.87223602    -0.82800
H1860       H  0.50016079  0.06308177  0.78504831     0.12900
C1861       C  0.55220357  0.09132954  0.72935644     0.02300
N1862       N  0.61594926  0.11952163  0.77333150    -0.81400
H1863       H  0.61052233  0.11190738  0.85973976     0.17800
C1864       C  0.56113294  0.12272280  0.71136645    -0.26200
C1865       C  0.55854579  0.12625226  0.66656935     0.35800
C1866       C  0.54641482  0.09765241  0.63926913    -0.20300
C1867       C  0.53926028  0.06651621  0.65693635    -0.25500
C1868       C  0.54212447  0.06311411  0.70202236     0.27200
H1869       H  0.56964101  0.14443320  0.73255448     0.12900
N1870       N  0.56779721  0.15873653  0.64859588    -0.82800
H1871       H  0.53013549  0.04465784  0.63589260     0.17800
N1872       N  0.53439311  0.03117897  0.72031929    -0.81400
H1873       H  0.57610780  0.17709922  0.67301518     0.33400
H1874       H  0.58823213  0.16563927  0.62785659     0.37900
H1875       H  0.52728740  0.01296723  0.69587823     0.33400
H1876       H  0.55651402  0.03412105  0.73406302     0.30100
H1877       H  0.63691160  0.12912383  0.79385264     0.33400
H1878       H  0.61663160  0.10111552  0.75397270     0.30100
H1879       H  0.49410360  0.07475617  0.89124604     0.37900
H1880       H  0.47379326  0.04651723  0.85172910     0.33400
C1881       C  0.77760406  0.34919804  0.99393164    -0.20300
C1882       C  0.76276611  0.34436148  0.95251932     0.35900
C1883       C  0.74409090  0.31150038  0.93546061    -0.26300
C1884       C  0.73924867  0.28354498  0.95981778     0.02300
C1885       C  0.75206724  0.28843521  0.00265167     0.27100
C1886       C  0.77182604  0.32127815  0.01875699    -0.25400
N1887       N  0.76775584  0.37288471  0.92748039    -0.82800
H1888       H  0.73373893  0.30769879  0.90294372     0.12900
C1889       C  0.71951976  0.24891208  0.94178008     0.02300
N1890       N  0.74510281  0.25998193  0.02952006    -0.81400
H1891       H  0.78337163  0.32523715  0.05057210     0.17800
C1892       C  0.73304491  0.22744615  0.94447201    -0.26200
C1893       C  0.71179118  0.19228199  0.94438776     0.35800
C1894       C  0.67711329  0.17884402  0.93820472    -0.20300
C1895       C  0.66481851  0.20020738  0.92668302    -0.25500
C1896       C  0.68543765  0.23534575  0.93005553     0.27200
H1897       H  0.75946669  0.23806041  0.95225844     0.12900
N1898       N  0.72438771  0.17035973  0.95623728    -0.82800
H1899       H  0.63795510  0.18950045  0.92246902     0.17800
N1900       N  0.67107806  0.25678308  0.92628793    -0.81400
H1901       H  0.75038677  0.18427481  0.96134392     0.33400
H1902       H  0.72032503  0.15436453  0.92983419     0.37900
H1903       H  0.64566687  0.24267731  0.91757727     0.33400
H1904       H  0.67184674  0.26687866  0.95702380     0.30100
H1905       H  0.75653390  0.26797401  0.05997144     0.33400
H1906       H  0.71914310  0.24631901  0.03497155     0.30100
H1907       H  0.79347579  0.38765990  0.92174278     0.37900
H1908       H  0.75607591  0.36516165  0.89710578     0.33400
loop_ 
_geom_bond_atom_site_label_1 
_geom_bond_atom_site_label_2 
_geom_bond_distance 
_geom_bond_site_symmetry_2 
_ccdc_geom_bond_type 
O1           C16   1.265       .  A
O1           Al9   1.905       .  S
C2           O12   1.259       .  A
C2            O3   1.256   1_556  A
C2         C1894   1.456       .  S
O3           Al5   1.879       .  S
O4            C6   1.255       .  A
O4           Al5   1.907       .  S
Al5          O13   1.895       .  S
Al5          O15   1.913       .  S
Al5          O14   1.779       .  S
C6           O19   1.253       .  A
C6         C1769   1.463   1_554  S
O7           C17   1.266       .  A
O7           Al9   1.910   1_556  S
O8           C21   1.277       .  A
O8          Al18   1.959       .  S
Al9          O22   1.855   1_554  S
Al9          O19   1.893       .  S
Al9          O14   1.784       .  S
O10          C17   1.263       .  A
O10         Al18   1.904       .  S
O11          C20   1.271       .  A
O11         Al18   1.959   1_554  S
O12         Al18   1.909       .  S
O13          C20   1.262       .  A
O14         Al18   1.791   1_554  S
O15          C16   1.267       .  A
C16        C1825   1.491       .  S
C17        C1853   1.470       .  S
C20        C1754   1.510       .  S
C21          O22   1.253       .  A
C21        C1810   1.479   1_545  S
O23          C38   1.279       .  A
O23         Al31   1.950       .  S
C24          O34   1.253       .  A
C24          O25   1.260       .  A
C24        C1657   1.478       .  S
O25         Al27   1.914       .  S
O26          C28   1.259       .  A
O26         Al27   1.877       .  S
Al27         O35   1.865       .  S
Al27         O37   1.907       .  S
Al27         O36   1.762       .  S
C28          O41   1.269       .  A
C28        C1726   1.467       .  S
O29          C39   1.260       .  A
O29         Al31   1.868       .  S
O30          C43   1.249       .  A
O30         Al40   1.867       .  S
Al31         O44   1.992       .  S
Al31         O41   1.954       .  S
Al31         O36   1.792       .  S
O32          C39   1.273       .  A
O32         Al40   1.957       .  S
O33          C42   1.270       .  A
O33         Al40   1.949       .  S
O34         Al40   1.878       .  S
O35          C42   1.258       .  A
O36         Al40   1.772       .  S
O37          C38   1.266       .  A
C38        C1629   1.505       .  S
C39        C1838   1.492       .  S
C42        C1866   1.476       .  S
C43          O44   1.274       .  A
C43        C1685   1.500   1_545  S
O45          C60   1.267       .  A
O45         Al53   1.911   1_554  S
C46          O56   1.261       .  A
C46          O47   1.253   1_556  A
C46        C1782   1.458       .  S
O47         Al49   1.860       .  S
O48          C50   1.256       .  A
O48         Al49   1.915       .  S
Al49         O57   1.898       .  S
Al49         O59   1.912       .  S
Al49         O58   1.780       .  S
C50          O63   1.252       .  A
C50        C1530   1.474   1_554  S
O51          C61   1.269       .  A
O51         Al53   1.913       .  S
O52          C65   1.276       .  A
O52         Al62   1.970       .  S
Al53         O66   1.854       .  S
Al53         O63   1.885   1_556  S
Al53         O58   1.783   1_556  S
O54          C61   1.269       .  A
O54         Al62   1.927       .  S
O55          C64   1.274       .  A
O55         Al62   1.967   1_554  S
O56         Al62   1.920       .  S
O57          C64   1.262       .  A
O58         Al62   1.790   1_554  S
O59          C60   1.267       .  A
C60        C1573   1.486       .  S
C61        C1614   1.484       .  S
C64        C1502   1.515       .  S
C65          O66   1.249       .  A
C65        C1545   1.485       .  S
O67          C82   1.280       .  A
O67         Al75   1.952       .  S
C68          O78   1.252       .  A
C68          O69   1.260       .  A
C68        C1713   1.482       .  S
O69         Al71   1.915       .  S
O70          C72   1.259       .  A
O70         Al71   1.879       .  S
Al71         O79   1.867       .  S
Al71         O81   1.908       .  S
Al71         O80   1.759       .  S
C72          O85   1.269       .  A
C72        C1461   1.463       .  S
O73          C83   1.262       .  A
O73         Al75   1.867       .  S
O74          C87   1.248       .  A
O74         Al84   1.869       .  S
Al75         O88   1.989       .  S
Al75         O85   1.950       .  S
Al75         O80   1.794       .  S
O76          C83   1.275       .  A
O76         Al84   1.961       .  S
O77          C86   1.271       .  A
O77         Al84   1.954       .  S
O78         Al84   1.882       .  S
O79          C86   1.257       .  A
O80         Al84   1.768       .  S
O81          C82   1.266       .  A
C82        C1405   1.497       .  S
C83        C1586   1.492       .  S
C86        C1601   1.480       .  S
C87          O88   1.271       .  A
C87        C1433   1.503       .  S
O89         C104   1.281       .  A
O89         Al97   1.953       .  S
C90         O100   1.251       .  A
C90          O91   1.262       .  A
C90        C1474   1.482       .  S
O91         Al93   1.924       .  S
O92          C94   1.258       .  A
O92         Al93   1.870       .  S
Al93        O101   1.864       .  S
Al93        O103   1.915       .  S
Al93        O102   1.759       .  S
C94         O107   1.270       .  A
C94        C1670   1.465       .  S
O95         C105   1.259       .  A
O95         Al97   1.859       .  S
O96         C109   1.247       .  A
O96        Al106   1.865       .  S
Al97        O110   2.001       .  S
Al97        O107   1.954       .  S
Al97        O102   1.797       .  S
O98         C105   1.275       .  A
O98        Al106   1.966       .  S
O99         C108   1.271       .  A
O99        Al106   1.950       .  S
O100       Al106   1.870       .  S
O101        C108   1.258       .  A
O102       Al106   1.769       .  S
O103        C104   1.267       .  A
C104       C1293   1.509       .  S
C105       C1377   1.483       .  S
C108       C1349   1.484       .  S
C109        O110   1.274       .  A
C109       C1321   1.509       .  S
O111        C126   1.267       .  A
O111       Al119   1.909       .  S
C112        O122   1.261       .  A
C112        O113   1.256   1_556  A
C112       C1517   1.463       .  S
O113       Al115   1.871       .  S
O114        C116   1.256       .  A
O114       Al115   1.914       .  S
Al115       O123   1.890       .  S
Al115       O125   1.921       .  S
Al115       O124   1.775       .  S
C116        O129   1.253       .  A
C116       C1881   1.467   1_554  S
O117        C127   1.270       .  A
O117       Al119   1.916   1_556  S
O118        C131   1.277   1_554  A
O118       Al128   1.970   1_554  S
Al119       O132   1.859   1_554  S
Al119       O129   1.896       .  S
Al119       O124   1.777       .  S
O120        C127   1.269       .  A
O120       Al128   1.924       .  S
O121        C130   1.275       .  A
O121       Al128   1.976   1_554  S
O122       Al128   1.916       .  S
O123        C130   1.261       .  A
O124       Al128   1.791   1_554  S
O125        C126   1.268       .  A
C126       C1390   1.491       .  S
C127       C1362   1.485       .  S
C130       C1250   1.512       .  S
C131        O132   1.252       .  A
C131       C1278   1.489       .  S
O133        C148   1.264       .  A
O133       Al141   1.904       .  S
C134        O144   1.262       .  A
C134        O135   1.252       .  A
C134       C1209   1.466       .  S
O135       Al137   1.866       .  S
O136        C138   1.257       .  A
O136       Al137   1.907       .  S
Al137       O145   1.895       .  S
Al137       O147   1.902       .  S
Al137       O146   1.780       .  S
C138        O151   1.252       .  A
C138       C1110   1.480       .  S
O139        C149   1.267       .  A
O139       Al141   1.908       .  S
O140        C153   1.278       .  A
O140       Al150   1.972       .  S
Al141       O154   1.846       .  S
Al141       O151   1.888       .  S
Al141       O146   1.782       .  S
O142        C149   1.264       .  A
O142       Al150   1.899       .  S
O143        C152   1.272       .  A
O143       Al150   1.960       .  S
O144       Al150   1.930       .  S
O145        C152   1.263       .  A
O146       Al150   1.789       .  S
O147        C148   1.264       .  A
C148       C1153   1.485       .  S
C149       C1194   1.476       .  S
C152       C1698   1.503       .  S
C153        O154   1.249       .  A
C153       C1138   1.486       .  S
O155        C170   1.278       .  A
O155       Al163   1.947       .  S
C156        O166   1.253       .  A
C156        O157   1.261       .  A
C156       C1013   1.487       .  S
O157       Al159   1.920       .  S
O158        C160   1.259       .  A
O158       Al159   1.879       .  S
Al159       O167   1.866       .  S
Al159       O169   1.917       .  S
Al159       O168   1.764       .  S
C160        O173   1.266       .  A
C160       C1069   1.466       .  S
O161        C171   1.262       .  A
O161       Al163   1.879       .  S
O162        C175   1.253       .  A
O162       Al172   1.890       .  S
Al163       O176   1.971       .  S
Al163       O173   1.932       .  S
Al163       O168   1.790       .  S
O164        C171   1.267       .  A
O164       Al172   1.923       .  S
O165        C174   1.266       .  A
O165       Al172   1.929       .  S
O166       Al172   1.877       .  S
O167        C174   1.258       .  A
O168       Al172   1.777       .  S
O169        C170   1.267       .  A
C170       C1558   1.509       .  S
C171       C1166   1.474       .  S
C174       C1181   1.467       .  S
C175        O176   1.270       .  A
C175       C1041   1.493       .  S
O177        C192   1.278       .  A
O177       Al185   1.945       .  S
C178        O188   1.253       .  A
C178        O179   1.261       .  A
C178       C1082   1.480       .  S
O179       Al181   1.915       .  S
O180        C182   1.257       .  A
O180       Al181   1.869       .  S
Al181       O189   1.856       .  S
Al181       O191   1.908       .  S
Al181       O190   1.759       .  S
C182        O195   1.270       .  A
C182        C998   1.462       .  S
O183        C193   1.260       .  A
O183       Al185   1.862       .  S
O184        C197   1.248       .  A
O184       Al194   1.861       .  S
Al185       O198   2.001       .  S
Al185       O195   1.955       .  S
Al185       O190   1.790       .  S
O186        C193   1.272       .  A
O186       Al194   1.954       .  S
O187        C196   1.270       .  A
O187       Al194   1.947       .  S
O188       Al194   1.879       .  S
O189        C196   1.258       .  A
O190       Al194   1.768       .  S
O191        C192   1.265       .  A
C192       C1265   1.492       .  S
C193        C970   1.487       .  S
C196        C942   1.488       .  S
C197        O198   1.275       .  A
C197        C901   1.502       .  S
O199        C214   1.267       .  A
O199       Al207   1.932       .  S
C200        O210   1.265       .  A
C200        O201   1.255       .  A
C200       C1097   1.456       .  S
O201       Al203   1.876       .  S
O202        C204   1.263       .  A
O202       Al203   1.928       .  S
Al203       O211   1.926       .  S
Al203       O213   1.867       .  S
Al203       O212   1.762       .  S
C204        O217   1.251       .  A
C204        C845   1.487       .  S
O205        C215   1.272       .  A
O205       Al207   1.952       .  S
O206        C219   1.269       .  A
O206       Al216   1.981       .  S
Al207       O220   1.871       .  S
Al207       O217   1.871       .  S
Al207       O212   1.769       .  S
O208        C215   1.261       .  A
O208       Al216   1.871       .  S
O209        C218   1.280       .  A
O209       Al216   1.944       .  S
O210       Al216   1.934       .  S
O211        C218   1.271       .  A
O212       Al216   1.794       .  S
O213        C214   1.258       .  A
C214        C957   1.484       .  S
C215        C929   1.469       .  S
C218       C1446   1.504       .  S
C219        O220   1.250       .  A
C219        C873   1.502       .  S
O221        C236   1.268       .  A
O221       Al229   1.909       .  S
C222        O232   1.260       .  A
C222        O223   1.252       .  A
C222        C858   1.461       .  S
O223       Al225   1.860       .  S
O224        C226   1.256       .  A
O224       Al225   1.919       .  S
Al225       O233   1.893       .  S
Al225       O235   1.913       .  S
Al225       O234   1.777       .  S
C226        O239   1.252       .  A
C226       C1222   1.474       .  S
O227        C237   1.271       .  A
O227       Al229   1.913       .  S
O228        C241   1.272       .  A
O228       Al238   1.962       .  S
Al229       O242   1.855       .  S
Al229       O239   1.896       .  S
Al229       O234   1.784       .  S
O230        C237   1.269       .  A
O230       Al238   1.911       .  S
O231        C240   1.272       .  A
O231       Al238   1.955       .  S
O232       Al238   1.919       .  S
O233        C240   1.263       .  A
O234       Al238   1.793       .  S
O235        C236   1.267       .  A
C236        C789   1.491       .  S
C237        C830   1.485       .  S
C240       C1334   1.507       .  S
C241        O242   1.249       .  A
C241        C761   1.484       .  S
O243        C258   1.279       .  A
O243       Al251   1.943       .  S
C244        O254   1.252       .  A
C244        O245   1.261       .  A
C244        C985   1.485       .  S
O245       Al247   1.917       .  S
O246        C248   1.258       .  A
O246       Al247   1.881       .  S
Al247       O255   1.867       .  S
Al247       O257   1.912       .  S
Al247       O256   1.758       .  S
C248        O261   1.268       .  A
C248       C1026   1.469       .  S
O249        C259   1.264       .  A
O249       Al251   1.871       .  S
O250        C263   1.247       .  A
O250       Al260   1.868       .  S
Al251       O264   1.993       .  S
Al251       O261   1.952       .  S
Al251       O256   1.795       .  S
O252        C259   1.273       .  A
O252       Al260   1.953       .  S
O253        C262   1.266       .  A
O253       Al260   1.938       .  S
O254       Al260   1.869       .  S
O255        C262   1.256       .  A
O256       Al260   1.769       .  S
O257        C258   1.268       .  A
C258       C1797   1.494       .  S
C259        C802   1.486       .  S
C262        C817   1.473       .  S
C263        O264   1.271       .  A
C263        C733   1.505       .  S
O265        C280   1.264       .  A
O265       Al273   1.903       .  S
C266        O276   1.260       .  A
C266        O267   1.252       .  A
C266        C718   1.463       .  S
O267       Al269   1.861       .  S
O268        C270   1.257       .  A
O268       Al269   1.915       .  S
Al269       O277   1.902       .  S
Al269       O279   1.909       .  S
Al269       O278   1.785       .  S
C270        O283   1.253       .  A
C270        C621   1.480       .  S
O271        C281   1.267       .  A
O271       Al273   1.904       .  S
O272        C285   1.272       .  A
O272       Al282   1.961       .  S
Al273       O286   1.839       .  S
Al273       O283   1.892       .  S
Al273       O278   1.791       .  S
O274        C281   1.265       .  A
O274       Al282   1.903       .  S
O275        C284   1.271       .  A
O275       Al282   1.943       .  S
O276       Al282   1.921       .  S
O277        C284   1.264       .  A
O278       Al282   1.794       .  S
O279        C280   1.266       .  A
C280        C649   1.484       .  S
C281        C677   1.467       .  S
C284        C914   1.510       .  S
C285        O286   1.246       .  A
C285       C1642   1.479       .  S
O287        C302   1.280       .  A
O287       Al295   1.938   1_565  S
C288        O298   1.250       .  A
C288        O289   1.261       .  A
C288        C578   1.484       .  S
O289       Al291   1.914       .  S
O290        C292   1.256       .  A
O290       Al291   1.881   1_565  S
Al291       O299   1.860       .  S
Al291       O301   1.919   1_545  S
Al291       O300   1.766       .  S
C292        O305   1.268       .  A
C292        C606   1.472       .  S
O293        C303   1.263       .  A
O293       Al295   1.864       .  S
O294        C307   1.248       .  A
O294       Al304   1.873       .  S
Al295       O308   1.998       .  S
Al295       O305   1.958   1_545  S
Al295       O300   1.793       .  S
O296        C303   1.276       .  A
O296       Al304   1.963       .  S
O297        C306   1.269       .  A
O297       Al304   1.941       .  S
O298       Al304   1.868       .  S
O299        C306   1.255       .  A
O300       Al304   1.771       .  S
O301        C302   1.269       .  A
C302        C774   1.492       .  S
C303        C662   1.488       .  S
C306        C690   1.477       .  S
C307        O308   1.272       .  A
C307       C1489   1.509       .  S
O309        C324   1.267       .  A
O309       Al317   1.922       .  S
C310        O320   1.260       .  A
C310        O311   1.252       .  A
C310        C634   1.464   1_655  S
O311       Al313   1.876       .  S
O312        C314   1.259       .  A
O312       Al313   1.904       .  S
Al313       O321   1.885       .  S
Al313       O323   1.911       .  S
Al313       O322   1.778       .  S
C314        O327   1.258       .  A
C314        C481   1.474       .  S
O315        C325   1.264       .  A
O315       Al317   1.902       .  S
O316        C329   1.276       .  A
O316       Al326   1.960       .  S
Al317       O330   1.852       .  S
Al317       O327   1.899       .  S
Al317       O322   1.777       .  S
O318        C325   1.265       .  A
O318       Al326   1.919       .  S
O319        C328   1.277       .  A
O319       Al326   1.972       .  S
O320       Al326   1.927       .  S
O321        C328   1.264       .  A
O322       Al326   1.787       .  S
O323        C324   1.263       .  A
C324        C509   1.494       .  S
C325        C550   1.471       .  S
C328        C746   1.501   1_655  S
C329        O330   1.251       .  A
C329       C1418   1.485       .  S
O331        C346   1.283       .  A
O331       Al339   1.957       .  S
C332        O342   1.252       .  A
C332        O333   1.260       .  A
C332        C593   1.486       .  S
O333       Al335   1.916       .  S
O334        C336   1.258       .  A
O334       Al335   1.882       .  S
Al335       O343   1.868       .  S
Al335       O345   1.922       .  S
Al335       O344   1.766       .  S
C336        O349   1.266       .  A
C336        C453   1.473       .  S
O337        C347   1.263       .  A
O337       Al339   1.874       .  S
O338        C351   1.247       .  A
O338       Al348   1.874       .  S
Al339       O352   1.992       .  S
Al339       O349   1.944       .  S
Al339       O344   1.801       .  S
O340        C347   1.276       .  A
O340       Al348   1.959       .  S
O341        C350   1.270       .  A
O341       Al348   1.944       .  S
O342       Al348   1.879       .  S
O343        C350   1.259       .  A
O344       Al348   1.777       .  S
O345        C346   1.269       .  A
C346       C1125   1.506       .  S
C347        C522   1.484       .  S
C350        C537   1.494       .  S
C351        O352   1.270       .  A
C351       C1237   1.507       .  S
O353        C368   1.271       .  A
O353       Al361   1.951       .  S
C354        O364   1.271       .  A
C354        O355   1.254       .  A
C354        C494   1.463       .  S
O355       Al357   1.866   1_565  S
O356        C358   1.265       .  A
O356       Al357   1.942       .  S
Al357       O365   1.939   1_545  S
Al357       O367   1.856       .  S
Al357       O366   1.763       .  S
C358        O371   1.253       .  A
C358        C705   1.477       .  S
O359        C369   1.273       .  A
O359       Al361   1.965       .  S
O360        C373   1.275       .  A
O360       Al370   1.996       .  S
Al361       O374   1.870       .  S
Al361       O371   1.869       .  S
Al361       O366   1.765       .  S
O362        C369   1.257       .  A
O362       Al370   1.852       .  S
O363        C372   1.271       .  A
O363       Al370   1.918   1_565  S
O364       Al370   1.962   1_565  S
O365        C372   1.270       .  A
O366       Al370   1.780       .  S
O367        C368   1.257       .  A
C368        C397   1.480       .  S
C369        C425   1.486       .  S
C372       C1054   1.484       .  S
C373        O374   1.252       .  A
C373       C1306   1.499       .  S
O375        C390   1.275       .  A
O375       Al383   1.940       .  S
C376        O386   1.257       .  A
C376        O377   1.259       .  A
C376        C466   1.488       .  S
O377       Al379   1.908       .  S
O378        C380   1.257       .  A
O378       Al379   1.870       .  S
Al379       O387   1.867       .  S
Al379       O389   1.911       .  S
Al379       O388   1.763       .  S
C380        O393   1.270       .  A
C380        C565   1.469   1_655  S
O381        C391   1.261       .  A
O381       Al383   1.869       .  S
O382        C395   1.254       .  A
O382       Al392   1.880       .  S
Al383       O396   1.980       .  S
Al383       O393   1.955       .  S
Al383       O388   1.789       .  S
O384        C391   1.269       .  A
O384       Al392   1.938       .  S
O385        C394   1.269       .  A
O385       Al392   1.936       .  S
O386       Al392   1.893       .  S
O387        C394   1.258       .  A
O388       Al392   1.774       .  S
O389        C390   1.265       .  A
C390        C886   1.495   1_655  S
C391        C410   1.475       .  S
C394        C438   1.475       .  S
C395        O396   1.273       .  A
C395       C1741   1.503       .  S
C397        C398   1.412       .  A
C397        C402   1.406       .  A
C398        C399   1.409       .  A
C398        N403   1.437       .  S
C399        C400   1.405       .  A
C399        H404   1.084       .  S
C400        C405   1.481       .  S
C400        C401   1.409       .  A
C401        C402   1.397       .  A
C401        N406   1.439       .  S
C402        H407   1.084       .  S
N403        H423   1.046       .  S
N403        H424   1.046       .  S
C405        C408   1.406       .  A
C405        C412   1.408       .  A
N406        H421   1.046       .  S
N406        H422   1.046       .  S
C408        C409   1.405   1_556  A
C408        H413   1.084       .  S
C409        C410   1.411       .  A
C409        N414   1.438       .  S
C410        C411   1.405   1_554  A
C411        C412   1.398       .  A
C411        H415   1.084   1_556  S
C412        N416   1.438       .  S
N414        H417   1.046       .  S
N414        H418   1.045       .  S
N416        H419   1.045       .  S
N416        H420   1.046       .  S
C425        C426   1.415       .  A
C425        C430   1.412       .  A
C426        C427   1.409       .  A
C426        N431   1.437       .  S
C427        C428   1.402       .  A
C427        H432   1.084       .  S
C428        C433   1.470       .  S
C428        C429   1.401       .  A
C429        C430   1.396       .  A
C429        N434   1.439       .  S
C430        H435   1.083       .  S
N431        H451   1.046       .  S
N431        H452   1.046       .  S
C433        C436   1.397       .  A
C433        C440   1.408       .  A
N434        H449   1.046   1_545  S
N434        H450   1.045       .  S
C436        C437   1.397       .  A
C436        H441   1.084       .  S
C437        C438   1.413       .  A
C437        N442   1.433       .  S
C438        C439   1.405       .  A
C439        C440   1.406       .  A
C439        H443   1.084       .  S
C440        N444   1.437       .  S
N442        H445   1.045       .  S
N442        H446   1.046       .  S
N444        H447   1.046       .  S
N444        H448   1.045       .  S
C453        C454   1.412       .  A
C453        C458   1.403       .  A
C454        C455   1.406       .  A
C454        N459   1.438       .  S
C455        C456   1.402       .  A
C455        H460   1.084       .  S
C456        C461   1.479       .  S
C456        C457   1.408       .  A
C457        C458   1.401       .  A
C457        N462   1.438       .  S
C458        H463   1.084       .  S
N459        H479   1.046       .  S
N459        H480   1.045       .  S
C461        C464   1.400       .  A
C461        C468   1.405       .  A
N462        H477   1.046       .  S
N462        H478   1.046       .  S
C464        C465   1.400       .  A
C464        H469   1.084       .  S
C465        C466   1.418   1_565  A
C465        N470   1.439   1_565  S
C466        C467   1.410   1_545  A
C467        C468   1.407       .  A
C467        H471   1.082   1_565  S
C468        N472   1.437       .  S
N470        H473   1.045   1_545  S
N470        H474   1.046       .  S
N472        H475   1.046       .  S
N472        H476   1.045       .  S
C481        C482   1.414       .  A
C481        C486   1.401       .  A
C482        C483   1.394       .  A
C482        N487   1.432       .  S
C483        C484   1.398       .  A
C483        H488   1.084       .  S
C484        C489   1.477       .  S
C484        C485   1.414       .  A
C485        C486   1.405       .  A
C485        N490   1.438       .  S
C486        H491   1.084       .  S
N487        H507   1.046       .  S
N487        H508   1.046       .  S
C489        C492   1.401       .  A
C489        C496   1.415       .  A
N490        H505   1.045       .  S
N490        H506   1.046       .  S
C492        C493   1.393       .  A
C492        H497   1.085       .  S
C493        C494   1.403       .  A
C493        N498   1.428       .  S
C494        C495   1.404       .  A
C495        C496   1.403       .  A
C495        H499   1.084       .  S
C496        N500   1.437       .  S
N498        H501   1.046       .  S
N498        H502   1.046       .  S
N500        H503   1.046       .  S
N500        H504   1.044       .  S
C509        C510   1.419       .  A
C509        C514   1.408       .  A
C510        C511   1.400       .  A
C510        N515   1.433       .  S
C511        C512   1.399       .  A
C511        H516   1.084       .  S
C512        C517   1.489       .  S
C512        C513   1.412       .  A
C513        C514   1.412       .  A
C513        N518   1.437       .  S
C514        H519   1.083       .  S
N515        H535   1.046       .  S
N515        H536   1.046       .  S
C517        C520   1.401       .  A
C517        C524   1.414       .  A
N518        H533   1.046       .  S
N518        H534   1.045       .  S
C520        C521   1.405   1_556  A
C520        H525   1.084       .  S
C521        C522   1.416       .  A
C521        N526   1.438       .  S
C522        C523   1.402       .  A
C523        C524   1.407   1_554  A
C523        H527   1.082       .  S
C524        N528   1.437       .  S
N526        H529   1.046   1_554  S
N526        H530   1.045       .  S
N528        H531   1.046   1_556  S
N528        H532   1.046       .  S
C537        C538   1.414       .  A
C537        C542   1.409       .  A
C538        C539   1.411       .  A
C538        N543   1.437       .  S
C539        C540   1.407       .  A
C539        H544   1.083       .  S
C540        C545   1.491       .  S
C540        C541   1.408       .  A
C541        C542   1.402       .  A
C541        N546   1.439       .  S
C542        H547   1.080       .  S
N543        H563   1.046       .  S
N543        H564   1.046       .  S
C545        C548   1.405       .  A
C545        C552   1.412       .  A
N546        H561   1.046       .  S
N546        H562   1.045       .  S
C548        C549   1.400       .  A
C548        H553   1.084       .  S
C549        C550   1.416       .  A
C549        N554   1.439       .  S
C550        C551   1.403       .  A
C551        C552   1.407       .  A
C551        H555   1.084       .  S
C552        N556   1.437       .  S
N554        H557   1.045       .  S
N554        H558   1.042       .  S
N556        H559   1.046       .  S
N556        H560   1.045       .  S
C565        C566   1.417       .  A
C565        C570   1.403       .  A
C566        C567   1.398       .  A
C566        N571   1.439   1_455  S
C567        C568   1.400       .  A
C567        H572   1.084       .  S
C568        C573   1.476       .  S
C568        C569   1.410       .  A
C569        C570   1.405       .  A
C569        N574   1.438       .  S
C570        H575   1.084       .  S
N571        H591   1.045       .  S
N571        H592   1.046       .  S
C573        C576   1.397       .  A
C573        C580   1.409       .  A
N574        H589   1.046       .  S
N574        H590   1.045       .  S
C576        C577   1.405       .  A
C576        H581   1.084       .  S
C577        C578   1.421       .  A
C577        N582   1.438       .  S
C578        C579   1.404       .  A
C579        C580   1.401       .  A
C579        H583   1.083       .  S
C580        N584   1.439       .  S
N582        H585   1.046       .  S
N582        H586   1.046       .  S
N584        H587   1.045       .  S
N584        H588   1.046       .  S
C593        C594   1.420       .  A
C593        C598   1.403       .  A
C594        C595   1.409       .  A
C594        N599   1.437       .  S
C595        C596   1.399   1_655  A
C595        H600   1.084   1_655  S
C596        C601   1.479       .  S
C596        C597   1.408       .  A
C597        C598   1.402   1_455  A
C597        N602   1.438       .  S
C598        H603   1.083       .  S
N599        H619   1.046       .  S
N599        H620   1.046       .  S
C601        C604   1.401       .  A
C601        C608   1.415       .  A
N602        H617   1.045       .  S
N602        H618   1.046       .  S
C604        C605   1.400       .  A
C604        H609   1.084       .  S
C605        C606   1.415       .  A
C605        N610   1.438       .  S
C606        C607   1.404       .  A
C607        C608   1.403       .  A
C607        H611   1.085       .  S
C608        N612   1.438       .  S
N610        H613   1.045       .  S
N610        H614   1.045       .  S
N612        H615   1.046       .  S
N612        H616   1.044       .  S
C621        C622   1.415   1_545  A
C621        C626   1.402   1_545  A
C622        C623   1.401       .  A
C622        N627   1.433   1_565  S
C623        C624   1.400       .  A
C623        H628   1.084       .  S
C624        C629   1.485       .  S
C624        C625   1.413       .  A
C625        C626   1.406       .  A
C625        N630   1.432       .  S
C626        H631   1.084   1_565  S
N627        H647   1.046       .  S
N627        H648   1.045   1_545  S
C629        C632   1.404       .  A
C629        C636   1.417       .  A
N630        H645   1.045       .  S
N630        H646   1.046       .  S
C632        C633   1.402       .  A
C632        H637   1.084       .  S
C633        C634   1.407       .  A
C633        N638   1.438       .  S
C634        C635   1.402       .  A
C635        C636   1.404       .  A
C635        H639   1.083   1_455  S
C636        N640   1.438       .  S
N638        H641   1.045       .  S
N638        H642   1.046       .  S
N640        H643   1.046   1_455  S
N640        H644   1.044       .  S
C649        C650   1.414       .  A
C649        C654   1.407       .  A
C650        C651   1.409       .  A
C650        N655   1.438       .  S
C651        C652   1.405       .  A
C651        H656   1.084       .  S
C652        C657   1.483       .  S
C652        C653   1.407       .  A
C653        C654   1.399       .  A
C653        N658   1.439       .  S
C654        H659   1.083       .  S
N655        H675   1.046       .  S
N655        H676   1.045       .  S
C657        C660   1.406       .  A
C657        C664   1.406       .  A
N658        H673   1.045       .  S
N658        H674   1.046       .  S
C660        C661   1.410   1_556  A
C660        H665   1.084       .  S
C661        C662   1.415       .  A
C661        N666   1.437       .  S
C662        C663   1.409       .  A
C663        C664   1.398   1_554  A
C663        H667   1.083       .  S
C664        N668   1.439       .  S
N666        H669   1.045       .  S
N666        H670   1.046       .  S
N668        H671   1.045       .  S
N668        H672   1.046       .  S
C677        C678   1.406       .  A
C677        C682   1.402       .  A
C678        C679   1.406       .  A
C678        N683   1.432       .  S
C679        C680   1.405       .  A
C679        H684   1.084       .  S
C680        C685   1.476       .  S
C680        C681   1.407       .  A
C681        C682   1.400       .  A
C681        N686   1.438       .  S
C682        H687   1.084       .  S
N683        H703   1.046       .  S
N683        H704   1.045       .  S
C685        C688   1.399       .  A
C685        C692   1.409       .  A
N686        H701   1.046       .  S
N686        H702   1.045       .  S
C688        C689   1.401       .  A
C688        H693   1.084       .  S
C689        C690   1.415       .  A
C689        N694   1.439       .  S
C690        C691   1.404       .  A
C691        C692   1.408       .  A
C691        H695   1.084       .  S
C692        N696   1.437       .  S
N694        H697   1.046       .  S
N694        H698   1.046       .  S
N696        H699   1.046       .  S
N696        H700   1.045       .  S
C705        C706   1.413       .  A
C705        C710   1.401       .  A
C706        C707   1.402       .  A
C706        N711   1.433       .  S
C707        C708   1.398   1_655  A
C707        H712   1.084       .  S
C708        C713   1.479       .  S
C708        C709   1.413       .  A
C709        C710   1.408   1_455  A
C709        N714   1.438       .  S
C710        H715   1.084       .  S
N711        H731   1.046       .  S
N711        H732   1.045       .  S
C713        C716   1.402       .  A
C713        C720   1.409       .  A
N714        H729   1.046       .  S
N714        H730   1.046       .  S
C716        C717   1.401       .  A
C716        H721   1.084       .  S
C717        C718   1.413       .  A
C717        N722   1.438       .  S
C718        C719   1.403       .  A
C719        C720   1.405       .  A
C719        H723   1.085       .  S
C720        N724   1.438       .  S
N722        H725   1.045       .  S
N722        H726   1.045       .  S
N724        H727   1.046       .  S
N724        H728   1.046       .  S
C733        C734   1.417       .  A
C733        C738   1.413       .  A
C734        C735   1.419       .  A
C734        N739   1.436       .  S
C735        C736   1.407       .  A
C735        H740   1.083       .  S
C736        C741   1.496       .  S
C736        C737   1.406       .  A
C737        C738   1.407       .  A
C737        N742   1.438       .  S
C738        H743   1.083       .  S
N739        H759   1.045       .  S
N739        H760   1.045       .  S
C741        C744   1.408       .  A
C741        C748   1.406       .  A
N742        H757   1.045       .  S
N742        H758   1.046       .  S
C744        C745   1.418       .  A
C744        H749   1.083       .  S
C745        C746   1.414       .  A
C745        N750   1.437       .  S
C746        C747   1.413       .  A
C747        C748   1.408       .  A
C747        H751   1.083       .  S
C748        N752   1.438       .  S
N750        H753   1.046       .  S
N750        H754   1.045       .  S
N752        H755   1.046       .  S
N752        H756   1.045       .  S
C761        C762   1.410       .  A
C761        C766   1.407       .  A
C762        C763   1.412       .  A
C762        N767   1.431       .  S
C763        C764   1.407       .  A
C763        H768   1.084       .  S
C764        C769   1.506       .  S
C764        C765   1.415       .  A
C765        C766   1.413       .  A
C765        N770   1.438       .  S
C766        H771   1.083       .  S
N767        H787   1.044       .  S
N767        H788   1.046       .  S
C769        C772   1.404       .  A
C769        C776   1.418       .  A
N770        H785   1.045       .  S
N770        H786   1.046       .  S
C772        C773   1.410       .  A
C772        H777   1.083       .  S
C773        C774   1.416       .  A
C773        N778   1.438       .  S
C774        C775   1.404       .  A
C775        C776   1.416       .  A
C775        H779   1.084       .  S
C776        N780   1.437       .  S
N778        H781   1.046       .  S
N778        H782   1.045       .  S
N780        H783   1.046       .  S
N780        H784   1.045       .  S
C789        C790   1.416       .  A
C789        C794   1.410       .  A
C790        C791   1.408       .  A
C790        N795   1.437       .  S
C791        C792   1.404       .  A
C791        H796   1.084       .  S
C792        C797   1.485       .  S
C792        C793   1.407       .  A
C793        C794   1.402       .  A
C793        N798   1.439       .  S
C794        H799   1.083       .  S
N795        H815   1.045       .  S
N795        H816   1.046       .  S
C797        C800   1.405       .  A
C797        C804   1.407       .  A
N798        H813   1.046       .  S
N798        H814   1.046       .  S
C800        C801   1.409       .  A
C800        H805   1.084       .  S
C801        C802   1.415       .  A
C801        N806   1.438       .  S
C802        C803   1.407       .  A
C803        C804   1.401       .  A
C803        H807   1.083       .  S
C804        N808   1.438       .  S
N806        H809   1.046       .  S
N806        H810   1.046       .  S
N808        H811   1.046       .  S
N808        H812   1.045       .  S
C817        C818   1.408       .  A
C817        C822   1.403   1_556  A
C818        C819   1.410   1_556  A
C818        N823   1.437       .  S
C819        C820   1.408       .  A
C819        H824   1.083       .  S
C820        C825   1.484       .  S
C820        C821   1.408       .  A
C821        C822   1.400       .  A
C821        N826   1.438       .  S
C822        H827   1.083   1_554  S
N823        H843   1.046       .  S
N823        H844   1.045       .  S
C825        C828   1.405       .  A
C825        C832   1.406       .  A
N826        H841   1.046       .  S
N826        H842   1.045       .  S
C828        C829   1.407       .  A
C828        H833   1.084       .  S
C829        C830   1.413       .  A
C829        N834   1.437       .  S
C830        C831   1.408       .  A
C831        C832   1.402       .  A
C831        H835   1.082       .  S
C832        N836   1.438       .  S
N834        H837   1.046       .  S
N834        H838   1.045       .  S
N836        H839   1.045       .  S
N836        H840   1.046       .  S
C845        C846   1.424       .  A
C845        C850   1.405       .  A
C846        C847   1.399       .  A
C846        N851   1.433       .  S
C847        C848   1.396       .  A
C847        H852   1.084       .  S
C848        C853   1.476       .  S
C848        C849   1.410       .  A
C849        C850   1.405       .  A
C849        N854   1.439       .  S
C850        H855   1.083       .  S
N851        H871   1.046       .  S
N851        H872   1.044       .  S
C853        C856   1.399       .  A
C853        C860   1.409       .  A
N854        H869   1.045       .  S
N854        H870   1.045       .  S
C856        C857   1.398       .  A
C856        H861   1.084       .  S
C857        C858   1.414       .  A
C857        N862   1.439       .  S
C858        C859   1.403       .  A
C859        C860   1.406       .  A
C859        H863   1.084       .  S
C860        N864   1.438       .  S
N862        H865   1.046       .  S
N862        H866   1.044       .  S
N864        H867   1.045       .  S
N864        H868   1.046       .  S
C873        C874   1.417       .  A
C873        C878   1.408       .  A
C874        C875   1.418       .  A
C874        N879   1.437       .  S
C875        C876   1.409       .  A
C875        H880   1.083       .  S
C876        C881   1.505       .  S
C876        C877   1.413       .  A
C877        C878   1.407       .  A
C877        N882   1.438       .  S
C878        H883   1.084       .  S
N879        H899   1.046       .  S
N879        H900   1.045       .  S
C881        C884   1.403       .  A
C881        C888   1.418       .  A
N882        H897   1.045       .  S
N882        H898   1.046       .  S
C884        C885   1.406       .  A
C884        H889   1.083       .  S
C885        C886   1.416       .  A
C885        N890   1.439       .  S
C886        C887   1.407       .  A
C887        C888   1.419       .  A
C887        H891   1.083       .  S
C888        N892   1.437       .  S
N890        H893   1.046       .  S
N890        H894   1.046   1_455  S
N892        H895   1.045       .  S
N892        H896   1.046       .  S
C901        C902   1.415       .  A
C901        C906   1.407       .  A
C902        C903   1.406       .  A
C902        N907   1.433       .  S
C903        C904   1.405       .  A
C903        H908   1.083       .  S
C904        C909   1.515       .  S
C904        C905   1.428       .  A
C905        C906   1.417       .  A
C905        N910   1.439       .  S
C906        H911   1.084       .  S
N907        H927   1.046       .  S
N907        H928   1.046       .  S
C909        C912   1.408       .  A
C909        C916   1.414       .  A
N910        H925   1.042       .  S
N910        H926   1.047       .  S
C912        C913   1.416       .  A
C912        H917   1.083       .  S
C913        C914   1.420       .  A
C913        N918   1.438       .  S
C914        C915   1.410       .  A
C915        C916   1.413       .  A
C915        H919   1.083       .  S
C916        N920   1.432       .  S
N918        H921   1.045       .  S
N918        H922   1.046       .  S
N920        H923   1.045       .  S
N920        H924   1.046       .  S
C929        C930   1.408       .  A
C929        C934   1.403       .  A
C930        C931   1.396       .  A
C930        N935   1.434       .  S
C931        C932   1.400       .  A
C931        H936   1.084       .  S
C932        C937   1.475       .  S
C932        C933   1.409       .  A
C933        C934   1.408       .  A
C933        N938   1.437       .  S
C934        H939   1.083       .  S
N935        H955   1.045       .  S
N935        H956   1.046       .  S
C937        C940   1.403       .  A
C937        C944   1.402       .  A
N938        H953   1.046       .  S
N938        H954   1.045       .  S
C940        C941   1.411   1_554  A
C940        H945   1.084       .  S
C941        C942   1.417       .  A
C941        N946   1.437       .  S
C942        C943   1.410   1_556  A
C943        C944   1.396       .  A
C943        H947   1.082   1_554  S
C944        N948   1.439       .  S
N946        H949   1.046       .  S
N946        H950   1.045       .  S
N948        H951   1.046       .  S
N948        H952   1.045       .  S
C957        C958   1.415       .  A
C957        C962   1.407       .  A
C958        C959   1.407       .  A
C958        N963   1.438       .  S
C959        C960   1.402       .  A
C959        H964   1.084       .  S
C960        C965   1.474       .  S
C960        C961   1.412       .  A
C961        C962   1.396       .  A
C961        N966   1.440       .  S
C962        H967   1.084       .  S
N963        H983   1.045       .  S
N963        H984   1.046       .  S
C965        C968   1.402       .  A
C965        C972   1.403       .  A
N966        H981   1.046       .  S
N966        H982   1.043       .  S
C968        C969   1.409       .  A
C968        H973   1.084       .  S
C969        C970   1.416       .  A
C969        N974   1.437       .  S
C970        C971   1.410       .  A
C971        C972   1.398       .  A
C971        H975   1.083       .  S
C972        N976   1.439       .  S
N974        H977   1.045       .  S
N974        H978   1.046       .  S
N976        H979   1.046       .  S
N976        H980   1.045       .  S
C985        C986   1.415       .  A
C985        C990   1.410       .  A
C986        C987   1.403       .  A
C986        N991   1.438       .  S
C987        C988   1.403       .  A
C987        H992   1.084       .  S
C988        C993   1.480       .  S
C988        C989   1.406       .  A
C989        C990   1.403       .  A
C989        N994   1.438       .  S
C990        H995   1.083       .  S
N991       H1011   1.046       .  S
N991       H1012   1.046       .  S
C993        C996   1.404       .  A
C993       C1000   1.410       .  A
N994       H1009   1.045       .  S
N994       H1010   1.046       .  S
C996        C997   1.403       .  A
C996       H1001   1.084       .  S
C997        C998   1.408       .  A
C997       N1002   1.438       .  S
C998        C999   1.402       .  A
C999       C1000   1.402       .  A
C999       H1003   1.084       .  S
C1000      N1004   1.437       .  S
N1002      H1005   1.045       .  S
N1002      H1006   1.046       .  S
N1004      H1007   1.045       .  S
N1004      H1008   1.046       .  S
C1013      C1014   1.413       .  A
C1013      C1018   1.412       .  A
C1014      C1015   1.399       .  A
C1014      N1019   1.433       .  S
C1015      C1016   1.400       .  A
C1015      H1020   1.084       .  S
C1016      C1021   1.475       .  S
C1016      C1017   1.404       .  A
C1017      C1018   1.407       .  A
C1017      N1022   1.437       .  S
C1018      H1023   1.083       .  S
N1019      H1039   1.046       .  S
N1019      H1040   1.045       .  S
C1021      C1024   1.400       .  A
C1021      C1028   1.407       .  A
N1022      H1037   1.046       .  S
N1022      H1038   1.045       .  S
C1024      C1025   1.404       .  A
C1024      H1029   1.084       .  S
C1025      C1026   1.412       .  A
C1025      N1030   1.438       .  S
C1026      C1027   1.403       .  A
C1027      C1028   1.403       .  A
C1027      H1031   1.084       .  S
C1028      N1032   1.437       .  S
N1030      H1033   1.046       .  S
N1030      H1034   1.045       .  S
N1032      H1035   1.045       .  S
N1032      H1036   1.046       .  S
C1041      C1042   1.407       .  A
C1041      C1046   1.401       .  A
C1042      C1043   1.416       .  A
C1042      N1047   1.436       .  S
C1043      C1044   1.416       .  A
C1043      H1048   1.081       .  S
C1044      C1049   1.524       .  S
C1044      C1045   1.423       .  A
C1045      C1046   1.408       .  A
C1045      N1050   1.438       .  S
C1046      H1051   1.079       .  S
N1047      H1067   1.045       .  S
N1047      H1068   1.046       .  S
C1049      C1052   1.412       .  A
C1049      C1056   1.426       .  A
N1050      H1065   1.045       .  S
N1050      H1066   1.045       .  S
C1052      C1053   1.407       .  A
C1052      H1057   1.079       .  S
C1053      C1054   1.406       .  A
C1053      N1058   1.438       .  S
C1054      C1055   1.401       .  A
C1055      C1056   1.416       .  A
C1055      H1059   1.084       .  S
C1056      N1060   1.437       .  S
N1058      H1061   1.045       .  S
N1058      H1062   1.046       .  S
N1060      H1063   1.046       .  S
N1060      H1064   1.045       .  S
C1069      C1070   1.407       .  A
C1069      C1074   1.403       .  A
C1070      C1071   1.398       .  A
C1070      N1075   1.433       .  S
C1071      C1072   1.401       .  A
C1071      H1076   1.084       .  S
C1072      C1077   1.471       .  S
C1072      C1073   1.408       .  A
C1073      C1074   1.402       .  A
C1073      N1078   1.437       .  S
C1074      H1079   1.084       .  S
N1075      H1095   1.046       .  S
N1075      H1096   1.045       .  S
C1077      C1080   1.398       .  A
C1077      C1084   1.407       .  A
N1078      H1093   1.045       .  S
N1078      H1094   1.046       .  S
C1080      C1081   1.405       .  A
C1080      H1085   1.084       .  S
C1081      C1082   1.419       .  A
C1081      N1086   1.438       .  S
C1082      C1083   1.404       .  A
C1083      C1084   1.399       .  A
C1083      H1087   1.083       .  S
C1084      N1088   1.439       .  S
N1086      H1089   1.045       .  S
N1086      H1090   1.046       .  S
N1088      H1091   1.045       .  S
N1088      H1092   1.046       .  S
C1097      C1098   1.405       .  A
C1097      C1102   1.401       .  A
C1098      C1099   1.396       .  A
C1098      N1103   1.438       .  S
C1099      C1100   1.405       .  A
C1099      H1104   1.084       .  S
C1100      C1105   1.480       .  S
C1100      C1101   1.416       .  A
C1101      C1102   1.400       .  A
C1101      N1106   1.438       .  S
C1102      H1107   1.084       .  S
N1103      H1123   1.047       .  S
N1103      H1124   1.044       .  S
C1105      C1108   1.398       .  A
C1105      C1112   1.412       .  A
N1106      H1121   1.046       .  S
N1106      H1122   1.044       .  S
C1108      C1109   1.395       .  A
C1108      H1113   1.084       .  S
C1109      C1110   1.417       .  A
C1109      N1114   1.433       .  S
C1110      C1111   1.404       .  A
C1111      C1112   1.402       .  A
C1111      H1115   1.084       .  S
C1112      N1116   1.433       .  S
N1114      H1117   1.045       .  S
N1114      H1118   1.045       .  S
N1116      H1119   1.046       .  S
N1116      H1120   1.045       .  S
C1125      C1126   1.419       .  A
C1125      C1130   1.406       .  A
C1126      C1127   1.413       .  A
C1126      N1131   1.436       .  S
C1127      C1128   1.404       .  A
C1127      H1132   1.083       .  S
C1128      C1133   1.515       .  S
C1128      C1129   1.420       .  A
C1129      C1130   1.421       .  A
C1129      N1134   1.437       .  S
C1130      H1135   1.083       .  S
N1131      H1151   1.045       .  S
N1131      H1152   1.046       .  S
C1133      C1136   1.409       .  A
C1133      C1140   1.417       .  A
N1134      H1149   1.046       .  S
N1134      H1150   1.046       .  S
C1136      C1137   1.418       .  A
C1136      H1141   1.083       .  S
C1137      C1138   1.412       .  A
C1137      N1142   1.436       .  S
C1138      C1139   1.408       .  A
C1139      C1140   1.415       .  A
C1139      H1143   1.084       .  S
C1140      N1144   1.438       .  S
N1142      H1145   1.046       .  S
N1142      H1146   1.045       .  S
N1144      H1147   1.046       .  S
N1144      H1148   1.046       .  S
C1153      C1154   1.417       .  A
C1153      C1158   1.409       .  A
C1154      C1155   1.408       .  A
C1154      N1159   1.438       .  S
C1155      C1156   1.402       .  A
C1155      H1160   1.084       .  S
C1156      C1161   1.474       .  S
C1156      C1157   1.404       .  A
C1157      C1158   1.397       .  A
C1157      N1162   1.439       .  S
C1158      H1163   1.083       .  S
N1159      H1179   1.045       .  S
N1159      H1180   1.046       .  S
C1161      C1164   1.403       .  A
C1161      C1168   1.406       .  A
N1162      H1177   1.046       .  S
N1162      H1178   1.045       .  S
C1164      C1165   1.405       .  A
C1164      H1169   1.084       .  S
C1165      C1166   1.413       .  A
C1165      N1170   1.438       .  S
C1166      C1167   1.404       .  A
C1167      C1168   1.399       .  A
C1167      H1171   1.084       .  S
C1168      N1172   1.438       .  S
N1170      H1173   1.045       .  S
N1170      H1174   1.045       .  S
N1172      H1175   1.045       .  S
N1172      H1176   1.046       .  S
C1181      C1182   1.409       .  A
C1181      C1186   1.402   1_556  A
C1182      C1183   1.405   1_556  A
C1182      N1187   1.437       .  S
C1183      C1184   1.405       .  A
C1183      H1188   1.084       .  S
C1184      C1189   1.476       .  S
C1184      C1185   1.407       .  A
C1185      C1186   1.397       .  A
C1185      N1190   1.438       .  S
C1186      H1191   1.084   1_554  S
N1187      H1207   1.045       .  S
N1187      H1208   1.046       .  S
C1189      C1192   1.404       .  A
C1189      C1196   1.406       .  A
N1190      H1205   1.045       .  S
N1190      H1206   1.046       .  S
C1192      C1193   1.395       .  A
C1192      H1197   1.084       .  S
C1193      C1194   1.413       .  A
C1193      N1198   1.431       .  S
C1194      C1195   1.407       .  A
C1195      C1196   1.400       .  A
C1195      H1199   1.081       .  S
C1196      N1200   1.438       .  S
N1198      H1201   1.045       .  S
N1198      H1202   1.041       .  S
N1200      H1203   1.046       .  S
N1200      H1204   1.046       .  S
C1209      C1210   1.415       .  A
C1209      C1214   1.399       .  A
C1210      C1211   1.400       .  A
C1210      N1215   1.438       .  S
C1211      C1212   1.403       .  A
C1211      H1216   1.083       .  S
C1212      C1217   1.493       .  S
C1212      C1213   1.416       .  A
C1213      C1214   1.407       .  A
C1213      N1218   1.437       .  S
C1214      H1219   1.084       .  S
N1215      H1235   1.042       .  S
N1215      H1236   1.047       .  S
C1217      C1220   1.406       .  A
C1217      C1224   1.415       .  A
N1218      H1233   1.046       .  S
N1218      H1234   1.045       .  S
C1220      C1221   1.402       .  A
C1220      H1225   1.083       .  S
C1221      C1222   1.409       .  A
C1221      N1226   1.439       .  S
C1222      C1223   1.402       .  A
C1223      C1224   1.410       .  A
C1223      H1227   1.084       .  S
C1224      N1228   1.437       .  S
N1226      H1229   1.045       .  S
N1226      H1230   1.046       .  S
N1228      H1231   1.046       .  S
N1228      H1232   1.046       .  S
C1237      C1238   1.415       .  A
C1237      C1242   1.410       .  A
C1238      C1239   1.412       .  A
C1238      N1243   1.432       .  S
C1239      C1240   1.405       .  A
C1239      H1244   1.084       .  S
C1240      C1245   1.507       .  S
C1240      C1241   1.417       .  A
C1241      C1242   1.420       .  A
C1241      N1246   1.438       .  S
C1242      H1247   1.083       .  S
N1243      H1263   1.045       .  S
N1243      H1264   1.046       .  S
C1245      C1248   1.399       .  A
C1245      C1252   1.419       .  A
N1246      H1261   1.045       .  S
N1246      H1262   1.043       .  S
C1248      C1249   1.409       .  A
C1248      H1253   1.084       .  S
C1249      C1250   1.423       .  A
C1249      N1254   1.432       .  S
C1250      C1251   1.408       .  A
C1251      C1252   1.423       .  A
C1251      H1255   1.083       .  S
C1252      N1256   1.438       .  S
N1254      H1257   1.046       .  S
N1254      H1258   1.046       .  S
N1256      H1259   1.045       .  S
N1256      H1260   1.043       .  S
C1265      C1266   1.412       .  A
C1265      C1270   1.406       .  A
C1266      C1267   1.407       .  A
C1266      N1271   1.433       .  S
C1267      C1268   1.405       .  A
C1267      H1272   1.084       .  S
C1268      C1273   1.509       .  S
C1268      C1269   1.419       .  A
C1269      C1270   1.419       .  A
C1269      N1274   1.437       .  S
C1270      H1275   1.084       .  S
N1271      H1291   1.046       .  S
N1271      H1292   1.045   1_556  S
C1273      C1276   1.411       .  A
C1273      C1280   1.413   1_556  A
N1274      H1289   1.045       .  S
N1274      H1290   1.046   1_455  S
C1276      C1277   1.421   1_455  A
C1276      H1281   1.083       .  S
C1277      C1278   1.412       .  A
C1277      N1282   1.436       .  S
C1278      C1279   1.407   1_556  A
C1279      C1280   1.409   1_655  A
C1279      H1283   1.083       .  S
C1280      N1284   1.438       .  S
N1282      H1285   1.045   1_655  S
N1282      H1286   1.045       .  S
N1284      H1287   1.046       .  S
N1284      H1288   1.046       .  S
C1293      C1294   1.422       .  A
C1293      C1298   1.410       .  A
C1294      C1295   1.405       .  A
C1294      N1299   1.433       .  S
C1295      C1296   1.399       .  A
C1295      H1300   1.084       .  S
C1296      C1301   1.504       .  S
C1296      C1297   1.417       .  A
C1297      C1298   1.422       .  A
C1297      N1302   1.437       .  S
C1298      H1303   1.083       .  S
N1299      H1319   1.046       .  S
N1299      H1320   1.046       .  S
C1301      C1304   1.408       .  A
C1301      C1308   1.413       .  A
N1302      H1317   1.045       .  S
N1302      H1318   1.046       .  S
C1304      C1305   1.416       .  A
C1304      H1309   1.083       .  S
C1305      C1306   1.414       .  A
C1305      N1310   1.431       .  S
C1306      C1307   1.409       .  A
C1307      C1308   1.410       .  A
C1307      H1311   1.084       .  S
C1308      N1312   1.438       .  S
N1310      H1313   1.045       .  S
N1310      H1314   1.045       .  S
N1312      H1315   1.046       .  S
N1312      H1316   1.046       .  S
C1321      C1322   1.417       .  A
C1321      C1326   1.414       .  A
C1322      C1323   1.419   1_655  A
C1322      N1327   1.436       .  S
C1323      C1324   1.407       .  A
C1323      H1328   1.083       .  S
C1324      C1329   1.502       .  S
C1324      C1325   1.409       .  A
C1325      C1326   1.412   1_455  A
C1325      N1330   1.438       .  S
C1326      H1331   1.084       .  S
N1327      H1347   1.046       .  S
N1327      H1348   1.045       .  S
C1329      C1332   1.409       .  A
C1329      C1336   1.407       .  A
N1330      H1345   1.045       .  S
N1330      H1346   1.045       .  S
C1332      C1333   1.421       .  A
C1332      H1337   1.083       .  S
C1333      C1334   1.418       .  A
C1333      N1338   1.437       .  S
C1334      C1335   1.412       .  A
C1335      C1336   1.410       .  A
C1335      H1339   1.083       .  S
C1336      N1340   1.438       .  S
N1338      H1341   1.046       .  S
N1338      H1342   1.045       .  S
N1340      H1343   1.045       .  S
N1340      H1344   1.045       .  S
C1349      C1350   1.417       .  A
C1349      C1354   1.405       .  A
C1350      C1351   1.400       .  A
C1350      N1355   1.439       .  S
C1351      C1352   1.400       .  A
C1351      H1356   1.084       .  S
C1352      C1357   1.489       .  S
C1352      C1353   1.415       .  A
C1353      C1354   1.411       .  A
C1353      N1358   1.437       .  S
C1354      H1359   1.083       .  S
N1355      H1375   1.046       .  S
N1355      H1376   1.046       .  S
C1357      C1360   1.401       .  A
C1357      C1364   1.414       .  A
N1358      H1373   1.045       .  S
N1358      H1374   1.046       .  S
C1360      C1361   1.405       .  A
C1360      H1365   1.083       .  S
C1361      C1362   1.415       .  A
C1361      N1366   1.436       .  S
C1362      C1363   1.402       .  A
C1363      C1364   1.406       .  A
C1363      H1367   1.079       .  S
C1364      N1368   1.438       .  S
N1366      H1369   1.046       .  S
N1366      H1370   1.045       .  S
N1368      H1371   1.046       .  S
N1368      H1372   1.046       .  S
C1377      C1378   1.411       .  A
C1377      C1382   1.408       .  A
C1378      C1379   1.409       .  A
C1378      N1383   1.435       .  S
C1379      C1380   1.404       .  A
C1379      H1384   1.084       .  S
C1380      C1385   1.481       .  S
C1380      C1381   1.406       .  A
C1381      C1382   1.402       .  A
C1381      N1386   1.438       .  S
C1382      H1387   1.084       .  S
N1383      H1403   1.045       .  S
N1383      H1404   1.046       .  S
C1385      C1388   1.401       .  A
C1385      C1392   1.407       .  A
N1386      H1401   1.046       .  S
N1386      H1402   1.045       .  S
C1388      C1389   1.408       .  A
C1388      H1393   1.084       .  S
C1389      C1390   1.417       .  A
C1389      N1394   1.437       .  S
C1390      C1391   1.409       .  A
C1391      C1392   1.404       .  A
C1391      H1395   1.083       .  S
C1392      N1396   1.439       .  S
N1394      H1397   1.046       .  S
N1394      H1398   1.046       .  S
N1396      H1399   1.046       .  S
N1396      H1400   1.045       .  S
C1405      C1406   1.417       .  A
C1405      C1410   1.405       .  A
C1406      C1407   1.405       .  A
C1406      N1411   1.433       .  S
C1407      C1408   1.401       .  A
C1407      H1412   1.084       .  S
C1408      C1413   1.507       .  S
C1408      C1409   1.420       .  A
C1409      C1410   1.420       .  A
C1409      N1414   1.437       .  S
C1410      H1415   1.083       .  S
N1411      H1431   1.046       .  S
N1411      H1432   1.045       .  S
C1413      C1416   1.407       .  A
C1413      C1420   1.415       .  A
N1414      H1429   1.045       .  S
N1414      H1430   1.046       .  S
C1416      C1417   1.411       .  A
C1416      H1421   1.084       .  S
C1417      C1418   1.419       .  A
C1417      N1422   1.437       .  S
C1418      C1419   1.408       .  A
C1419      C1420   1.413       .  A
C1419      H1423   1.084       .  S
C1420      N1424   1.438       .  S
N1422      H1425   1.045       .  S
N1422      H1426   1.044       .  S
N1424      H1427   1.046       .  S
N1424      H1428   1.046       .  S
C1433      C1434   1.417       .  A
C1433      C1438   1.410       .  A
C1434      C1435   1.417       .  A
C1434      N1439   1.437       .  S
C1435      C1436   1.408       .  A
C1435      H1440   1.083       .  S
C1436      C1441   1.507       .  S
C1436      C1437   1.412       .  A
C1437      C1438   1.411       .  A
C1437      N1442   1.438       .  S
C1438      H1443   1.084       .  S
N1439      H1459   1.046       .  S
N1439      H1460   1.045       .  S
C1441      C1444   1.411       .  A
C1441      C1448   1.419       .  A
N1442      H1457   1.045       .  S
N1442      H1458   1.046       .  S
C1444      C1445   1.419       .  A
C1444      H1449   1.084       .  S
C1445      C1446   1.415       .  A
C1445      N1450   1.437       .  S
C1446      C1447   1.410       .  A
C1447      C1448   1.406       .  A
C1447      H1451   1.084       .  S
C1448      N1452   1.438       .  S
N1450      H1453   1.045       .  S
N1450      H1454   1.046       .  S
N1452      H1455   1.045       .  S
N1452      H1456   1.043       .  S
C1461      C1462   1.405       .  A
C1461      C1466   1.401       .  A
C1462      C1463   1.399       .  A
C1462      N1467   1.433       .  S
C1463      C1464   1.403       .  A
C1463      H1468   1.084       .  S
C1464      C1469   1.482       .  S
C1464      C1465   1.414       .  A
C1465      C1466   1.404       .  A
C1465      N1470   1.438       .  S
C1466      H1471   1.085       .  S
N1467      H1487   1.047       .  S
N1467      H1488   1.044       .  S
C1469      C1472   1.398       .  A
C1469      C1476   1.414       .  A
N1470      H1485   1.046       .  S
N1470      H1486   1.046       .  S
C1472      C1473   1.400       .  A
C1472      H1477   1.084       .  S
C1473      C1474   1.416       .  A
C1473      N1478   1.432       .  S
C1474      C1475   1.404       .  A
C1475      C1476   1.404       .  A
C1475      H1479   1.084       .  S
C1476      N1480   1.439       .  S
N1478      H1481   1.045       .  S
N1478      H1482   1.046       .  S
N1480      H1483   1.046       .  S
N1480      H1484   1.045       .  S
C1489      C1490   1.417       .  A
C1489      C1494   1.410       .  A
C1490      C1491   1.411       .  A
C1490      N1495   1.433       .  S
C1491      C1492   1.403       .  A
C1491      H1496   1.084       .  S
C1492      C1497   1.508       .  S
C1492      C1493   1.417       .  A
C1493      C1494   1.422       .  A
C1493      N1498   1.438       .  S
C1494      H1499   1.083       .  S
N1495      H1515   1.046       .  S
N1495      H1516   1.045       .  S
C1497      C1500   1.401       .  A
C1497      C1504   1.416       .  A
N1498      H1513   1.045       .  S
N1498      H1514   1.044       .  S
C1500      C1501   1.416       .  A
C1500      H1505   1.084       .  S
C1501      C1502   1.426       .  A
C1501      N1506   1.438       .  S
C1502      C1503   1.409       .  A
C1503      C1504   1.421       .  A
C1503      H1507   1.083       .  S
C1504      N1508   1.438       .  S
N1506      H1509   1.046       .  S
N1506      H1510   1.045       .  S
N1508      H1511   1.045       .  S
N1508      H1512   1.044       .  S
C1517      C1518   1.409       .  A
C1517      C1522   1.401       .  A
C1518      C1519   1.408       .  A
C1518      N1523   1.438       .  S
C1519      C1520   1.403       .  A
C1519      H1524   1.083       .  S
C1520      C1525   1.474       .  S
C1520      C1521   1.409       .  A
C1521      C1522   1.398       .  A
C1521      N1526   1.439   1_556  S
C1522      H1527   1.085   1_556  S
N1523      H1543   1.042       .  S
N1523      H1544   1.045       .  S
C1525      C1528   1.406       .  A
C1525      C1532   1.404       .  A
N1526      H1541   1.046       .  S
N1526      H1542   1.044   1_554  S
C1528      C1529   1.407       .  A
C1528      H1533   1.084       .  S
C1529      C1530   1.407       .  A
C1529      N1534   1.437   1_556  S
C1530      C1531   1.407       .  A
C1531      C1532   1.402       .  A
C1531      H1535   1.084       .  S
C1532      N1536   1.438       .  S
N1534      H1537   1.046       .  S
N1534      H1538   1.045       .  S
N1536      H1539   1.046       .  S
N1536      H1540   1.044       .  S
C1545      C1546   1.416   1_556  A
C1545      C1550   1.406       .  A
C1546      C1547   1.413       .  A
C1546      N1551   1.438       .  S
C1547      C1548   1.404   1_554  A
C1547      H1552   1.083       .  S
C1548      C1553   1.504       .  S
C1548      C1549   1.414       .  A
C1549      C1550   1.417       .  A
C1549      N1554   1.437       .  S
C1550      H1555   1.083       .  S
N1551      H1571   1.046       .  S
N1551      H1572   1.045       .  S
C1553      C1556   1.409       .  A
C1553      C1560   1.411       .  A
N1554      H1569   1.046       .  S
N1554      H1570   1.046       .  S
C1556      C1557   1.420       .  A
C1556      H1561   1.083       .  S
C1557      C1558   1.416       .  A
C1557      N1562   1.436       .  S
C1558      C1559   1.415       .  A
C1559      C1560   1.405       .  A
C1559      H1563   1.084       .  S
C1560      N1564   1.433       .  S
N1562      H1565   1.045       .  S
N1562      H1566   1.046       .  S
N1564      H1567   1.045   1_556  S
N1564      H1568   1.045       .  S
C1573      C1574   1.413       .  A
C1573      C1578   1.408       .  A
C1574      C1575   1.410       .  A
C1574      N1579   1.437       .  S
C1575      C1576   1.405       .  A
C1575      H1580   1.084       .  S
C1576      C1581   1.483       .  S
C1576      C1577   1.407       .  A
C1577      C1578   1.401       .  A
C1577      N1582   1.439       .  S
C1578      H1583   1.084       .  S
N1579      H1599   1.046       .  S
N1579      H1600   1.045       .  S
C1581      C1584   1.405       .  A
C1581      C1588   1.406       .  A
N1582      H1597   1.046       .  S
N1582      H1598   1.046       .  S
C1584      C1585   1.411       .  A
C1584      H1589   1.084       .  S
C1585      C1586   1.416       .  A
C1585      N1590   1.437       .  S
C1586      C1587   1.410       .  A
C1587      C1588   1.400       .  A
C1587      H1591   1.083       .  S
C1588      N1592   1.439       .  S
N1590      H1593   1.046       .  S
N1590      H1594   1.045       .  S
N1592      H1595   1.046       .  S
N1592      H1596   1.046       .  S
C1601      C1602   1.414       .  A
C1601      C1606   1.401       .  A
C1602      C1603   1.403       .  A
C1602      N1607   1.438       .  S
C1603      C1604   1.401       .  A
C1603      H1608   1.084       .  S
C1604      C1609   1.488       .  S
C1604      C1605   1.422       .  A
C1605      C1606   1.408       .  A
C1605      N1610   1.439       .  S
C1606      H1611   1.084       .  S
N1607      H1627   1.046       .  S
N1607      H1628   1.046       .  S
C1609      C1612   1.401       .  A
C1609      C1616   1.413       .  A
N1610      H1625   1.046       .  S
N1610      H1626   1.042       .  S
C1612      C1613   1.406       .  A
C1612      H1617   1.084       .  S
C1613      C1614   1.415       .  A
C1613      N1618   1.437       .  S
C1614      C1615   1.404       .  A
C1615      C1616   1.409       .  A
C1615      H1619   1.084       .  S
C1616      N1620   1.438       .  S
N1618      H1621   1.046       .  S
N1618      H1622   1.045       .  S
N1620      H1623   1.046       .  S
N1620      H1624   1.046       .  S
C1629      C1630   1.415       .  A
C1629      C1634   1.413       .  A
C1630      C1631   1.420       .  A
C1630      N1635   1.437       .  S
C1631      C1632   1.411       .  A
C1631      H1636   1.084       .  S
C1632      C1637   1.504       .  S
C1632      C1633   1.408       .  A
C1633      C1634   1.408       .  A
C1633      N1638   1.438       .  S
C1634      H1639   1.084       .  S
N1635      H1655   1.046       .  S
N1635      H1656   1.045       .  S
C1637      C1640   1.406       .  A
C1637      C1644   1.412       .  A
N1638      H1653   1.046       .  S
N1638      H1654   1.045       .  S
C1640      C1641   1.409       .  A
C1640      H1645   1.084       .  S
C1641      C1642   1.419       .  A
C1641      N1646   1.438       .  S
C1642      C1643   1.407       .  A
C1643      C1644   1.414       .  A
C1643      H1647   1.084       .  S
C1644      N1648   1.437       .  S
N1646      H1649   1.045       .  S
N1646      H1650   1.045       .  S
N1648      H1651   1.045       .  S
N1648      H1652   1.046       .  S
C1657      C1658   1.416       .  A
C1657      C1662   1.403       .  A
C1658      C1659   1.404       .  A
C1658      N1663   1.437       .  S
C1659      C1660   1.397       .  A
C1659      H1664   1.084       .  S
C1660      C1665   1.471       .  S
C1660      C1661   1.416       .  A
C1661      C1662   1.397       .  A
C1661      N1666   1.440       .  S
C1662      H1667   1.084       .  S
N1663      H1683   1.046       .  S
N1663      H1684   1.046       .  S
C1665      C1668   1.399       .  A
C1665      C1672   1.408       .  A
N1666      H1681   1.045       .  S
N1666      H1682   1.043       .  S
C1668      C1669   1.398       .  A
C1668      H1673   1.084       .  S
C1669      C1670   1.415       .  A
C1669      N1674   1.439       .  S
C1670      C1671   1.403       .  A
C1671      C1672   1.403       .  A
C1671      H1675   1.084       .  S
C1672      N1676   1.438       .  S
N1674      H1677   1.046       .  S
N1674      H1678   1.045       .  S
N1676      H1679   1.046       .  S
N1676      H1680   1.045       .  S
C1685      C1686   1.423       .  A
C1685      C1690   1.409       .  A
C1686      C1687   1.409       .  A
C1686      N1691   1.439       .  S
C1687      C1688   1.402       .  A
C1687      H1692   1.084       .  S
C1688      C1693   1.502       .  S
C1688      C1689   1.414       .  A
C1689      C1690   1.417       .  A
C1689      N1694   1.438       .  S
C1690      H1695   1.084       .  S
N1691      H1711   1.044       .  S
N1691      H1712   1.046       .  S
C1693      C1696   1.400       .  A
C1693      C1700   1.417       .  A
N1694      H1709   1.046       .  S
N1694      H1710   1.043       .  S
C1696      C1697   1.408       .  A
C1696      H1701   1.084       .  S
C1697      C1698   1.419       .  A
C1697      N1702   1.433       .  S
C1698      C1699   1.407       .  A
C1699      C1700   1.421       .  A
C1699      H1703   1.083       .  S
C1700      N1704   1.438       .  S
N1702      H1705   1.046       .  S
N1702      H1706   1.046       .  S
N1704      H1707   1.046       .  S
N1704      H1708   1.044       .  S
C1713      C1714   1.418       .  A
C1713      C1718   1.403       .  A
C1714      C1715   1.409       .  A
C1714      N1719   1.438       .  S
C1715      C1716   1.400       .  A
C1715      H1720   1.084       .  S
C1716      C1721   1.478       .  S
C1716      C1717   1.409       .  A
C1717      C1718   1.401       .  A
C1717      N1722   1.439       .  S
C1718      H1723   1.084       .  S
N1719      H1739   1.046       .  S
N1719      H1740   1.046       .  S
C1721      C1724   1.402       .  A
C1721      C1728   1.416       .  A
N1722      H1737   1.046       .  S
N1722      H1738   1.045       .  S
C1724      C1725   1.405       .  A
C1724      H1729   1.084       .  S
C1725      C1726   1.408       .  A
C1725      N1730   1.438       .  S
C1726      C1727   1.400       .  A
C1727      C1728   1.401       .  A
C1727      H1731   1.085       .  S
C1728      N1732   1.438       .  S
N1730      H1733   1.046       .  S
N1730      H1734   1.045       .  S
N1732      H1735   1.046       .  S
N1732      H1736   1.043       .  S
C1741      C1742   1.419       .  A
C1741      C1746   1.409       .  A
C1742      C1743   1.418       .  A
C1742      N1747   1.437       .  S
C1743      C1744   1.407       .  A
C1743      H1748   1.083       .  S
C1744      C1749   1.507       .  S
C1744      C1745   1.411       .  A
C1745      C1746   1.409       .  A
C1745      N1750   1.432       .  S
C1746      H1751   1.084       .  S
N1747      H1767   1.045       .  S
N1747      H1768   1.046       .  S
C1749      C1752   1.408       .  A
C1749      C1756   1.411       .  A
N1750      H1765   1.046       .  S
N1750      H1766   1.045       .  S
C1752      C1753   1.418       .  A
C1752      H1757   1.084       .  S
C1753      C1754   1.417       .  A
C1753      N1758   1.437       .  S
C1754      C1755   1.413       .  A
C1755      C1756   1.413       .  A
C1755      H1759   1.083       .  S
C1756      N1760   1.438       .  S
N1758      H1761   1.045       .  S
N1758      H1762   1.046       .  S
N1760      H1763   1.045       .  S
N1760      H1764   1.046       .  S
C1769      C1770   1.407       .  A
C1769      C1774   1.397   1_556  A
C1770      C1771   1.402       .  A
C1770      N1775   1.432       .  S
C1771      C1772   1.401       .  A
C1771      H1776   1.083       .  S
C1772      C1777   1.481       .  S
C1772      C1773   1.415   1_556  A
C1773      C1774   1.404       .  A
C1773      N1778   1.438       .  S
C1774      H1779   1.084       .  S
N1775      H1795   1.046       .  S
N1775      H1796   1.045       .  S
C1777      C1780   1.404       .  A
C1777      C1784   1.413       .  A
N1778      H1793   1.046       .  S
N1778      H1794   1.046       .  S
C1780      C1781   1.403       .  A
C1780      H1785   1.084       .  S
C1781      C1782   1.407       .  A
C1781      N1786   1.438       .  S
C1782      C1783   1.402       .  A
C1783      C1784   1.398       .  A
C1783      H1787   1.085       .  S
C1784      N1788   1.433       .  S
N1786      H1789   1.045       .  S
N1786      H1790   1.046       .  S
N1788      H1791   1.045       .  S
N1788      H1792   1.045       .  S
C1797      C1798   1.418       .  A
C1797      C1802   1.405       .  A
C1798      C1799   1.408       .  A
C1798      N1803   1.438       .  S
C1799      C1800   1.401       .  A
C1799      H1804   1.083       .  S
C1800      C1805   1.502       .  S
C1800      C1801   1.417       .  A
C1801      C1802   1.416       .  A
C1801      N1806   1.437       .  S
C1802      H1807   1.083       .  S
N1803      H1823   1.045       .  S
N1803      H1824   1.045       .  S
C1805      C1808   1.406       .  A
C1805      C1812   1.413   1_556  A
N1806      H1821   1.046       .  S
N1806      H1822   1.045       .  S
C1808      C1809   1.414       .  A
C1808      H1813   1.084       .  S
C1809      C1810   1.413       .  A
C1809      N1814   1.437       .  S
C1810      C1811   1.407   1_556  A
C1811      C1812   1.412       .  A
C1811      H1815   1.084       .  S
C1812      N1816   1.438       .  S
N1814      H1817   1.046       .  S
N1814      H1818   1.045       .  S
N1816      H1819   1.046       .  S
N1816      H1820   1.046       .  S
C1825      C1826   1.418       .  A
C1825      C1830   1.408       .  A
C1826      C1827   1.411       .  A
C1826      N1831   1.438       .  S
C1827      C1828   1.403       .  A
C1827      H1832   1.084       .  S
C1828      C1833   1.483       .  S
C1828      C1829   1.406       .  A
C1829      C1830   1.401       .  A
C1829      N1834   1.439       .  S
C1830      H1835   1.083       .  S
N1831      H1851   1.045       .  S
N1831      H1852   1.046       .  S
C1833      C1836   1.404       .  A
C1833      C1840   1.405       .  A
N1834      H1849   1.046       .  S
N1834      H1850   1.046       .  S
C1836      C1837   1.409       .  A
C1836      H1841   1.084       .  S
C1837      C1838   1.416       .  A
C1837      N1842   1.437       .  S
C1838      C1839   1.412       .  A
C1839      C1840   1.402       .  A
C1839      H1843   1.083       .  S
C1840      N1844   1.439       .  S
N1842      H1845   1.045       .  S
N1842      H1846   1.044       .  S
N1844      H1847   1.046       .  S
N1844      H1848   1.046       .  S
C1853      C1854   1.408       .  A
C1853      C1858   1.403       .  A
C1854      C1855   1.409       .  A
C1854      N1859   1.437       .  S
C1855      C1856   1.405       .  A
C1855      H1860   1.084       .  S
C1856      C1861   1.478       .  S
C1856      C1857   1.406       .  A
C1857      C1858   1.400       .  A
C1857      N1862   1.438       .  S
C1858      H1863   1.084       .  S
N1859      H1879   1.045       .  S
N1859      H1880   1.046       .  S
C1861      C1864   1.398       .  A
C1861      C1868   1.410       .  A
N1862      H1877   1.045       .  S
N1862      H1878   1.046       .  S
C1864      C1865   1.400       .  A
C1864      H1869   1.084       .  S
C1865      C1866   1.413       .  A
C1865      N1870   1.439       .  S
C1866      C1867   1.404       .  A
C1867      C1868   1.410       .  A
C1867      H1871   1.084       .  S
C1868      N1872   1.437       .  S
N1870      H1873   1.046       .  S
N1870      H1874   1.046       .  S
N1872      H1875   1.046       .  S
N1872      H1876   1.045       .  S
C1881      C1882   1.409       .  A
C1881      C1886   1.398   1_556  A
C1882      C1883   1.406       .  A
C1882      N1887   1.434       .  S
C1883      C1884   1.403       .  A
C1883      H1888   1.083       .  S
C1884      C1889   1.483       .  S
C1884      C1885   1.415   1_556  A
C1885      C1886   1.399       .  A
C1885      N1890   1.439       .  S
C1886      H1891   1.084       .  S
N1887      H1907   1.041       .  S
N1887      H1908   1.046       .  S
C1889      C1892   1.407       .  A
C1889      C1896   1.411       .  A
N1890      H1905   1.046       .  S
N1890      H1906   1.046       .  S
C1892      C1893   1.403       .  A
C1892      H1897   1.084       .  S
C1893      C1894   1.403       .  A
C1893      N1898   1.437       .  S
C1894      C1895   1.401       .  A
C1895      C1896   1.402       .  A
C1895      H1899   1.083       .  S
C1896      N1900   1.438       .  S
N1898      H1901   1.045       .  S
N1898      H1902   1.046       .  S
N1900      H1903   1.046       .  S
N1900      H1904   1.045       .  S
