geometry optimzed in LAMMPS
_audit_creation_date              2020-12-01 
_audit_creation_method            'lammps2cif' 
_symmetry_space_group_name_H-M    'P1' 
_symmetry_Int_Tables_number       1 
_symmetry_cell_setting            triclinic 
loop_ 
_symmetry_equiv_pos_as_xyz 
  x,y,z 
_cell_length_a                    35.38697501 
_cell_length_b                    35.29812061418054 
_cell_length_c                    52.006489305462246 
_cell_angle_alpha                 90.04603962856066 
_cell_angle_beta                  90.15640812517523 
_cell_angle_gamma                 89.78215558854292 
loop_ 
_atom_site_label 
_atom_site_type_symbol 
_atom_site_fract_x 
_atom_site_fract_y 
_atom_site_fract_z 
_atom_site_charge 
O1          O  0.63264253  0.13148731  0.30645921    -0.80900
O2          O  0.52052048  0.11188740  0.39516090    -0.65600
O3          O  0.60749017  0.10419123  0.35340670    -1.12200
C4          C  0.52643356  0.02471104  0.30429745     1.06000
O5          O  0.51018416  0.05046995  0.39534507    -0.78800
O6          O  0.54885491  0.00302933  0.36426742    -0.66400
Ni7        Ni  0.63001823  0.14993606  0.34130820     1.34900
C8          C  0.58415758  0.00199458  0.36007422     0.84700
O9          O  0.58989997  0.13807374  0.39941704    -0.79300
O10         O  0.63032304  0.17190464  0.37556216    -0.89600
C11         C  0.50483187  0.08324214  0.40472558     0.84300
O12         O  0.58517196  0.17748733  0.33196420    -0.67800
O13         O  0.50506210  0.02426307  0.32396842    -0.87100
C14         C  0.55253620  0.17693766  0.34193112     0.85100
C15         C  0.61441888  0.16398134  0.39696191     1.06700
H16         H  0.52391019  0.09599247  0.33865936     0.38500
O17         O  0.54025301  0.07979590  0.34873047    -1.09700
O18         O  0.60188917  0.02773673  0.34781864    -0.66400
Ni19       Ni  0.58449912  0.07182292  0.32855731     1.26300
O20         O  0.54336682  0.15351821  0.35915262    -0.66600
O21         O  0.55907287  0.04016045  0.30385912    -0.78900
C22         C  0.64284306  0.09893300  0.29837451     0.84500
O23         O  0.62996457  0.06872332  0.30839647    -0.66100
Ni24       Ni  0.50942015  0.03872633  0.35904215     1.27400
Ni25       Ni  0.56420075  0.10893853  0.37451270     1.26100
H26         H  0.62662721  0.09028249  0.36278981     0.39100
O27         O  0.48031028  0.91954887  0.12428521    -0.80900
O28         O  0.36095413  0.90175872  0.21360787    -0.65600
O29         O  0.45024429  0.89260153  0.17197792    -1.12200
C30         C  0.37344595  0.80877800  0.12388517     1.06000
O31         O  0.36014598  0.83917267  0.21456069    -0.78800
O32         O  0.40145318  0.79054509  0.18617509    -0.66400
Ni33       Ni  0.47966125  0.93407419  0.16042858     1.34900
C34         C  0.43537041  0.79251062  0.17847417     0.84700
O35         O  0.43222600  0.93104386  0.21722672    -0.79300
O36         O  0.48306618  0.95143317  0.19515451    -0.89600
C37         C  0.34811087  0.87091895  0.22287076     0.84300
O38         O  0.43879638  0.96777024  0.15418319    -0.67800
O39         O  0.35458397  0.80329007  0.14448984    -0.87100
C40         C  0.40447086  0.96985503  0.16111097     0.85100
C41         C  0.46338758  0.94917392  0.21562565     1.06700
H42         H  0.36454339  0.88233111  0.15809810     0.38500
O43         O  0.38301609  0.86780085  0.16765839    -1.09700
O44         O  0.44676980  0.81854859  0.16377567    -0.66400
Ni45       Ni  0.42653180  0.86202995  0.14686388     1.26300
O46         O  0.38811584  0.94476215  0.17481435    -0.66600
O47         O  0.40130971  0.83134875  0.12255744    -0.78900
C48         C  0.48562834  0.88621302  0.11560251     0.84500
O49         O  0.47058243  0.85804518  0.12636029    -0.66100
Ni50       Ni  0.35851041  0.82264830  0.17927067     1.27400
Ni51       Ni  0.40625190  0.89976741  0.19274905     1.26100
H52         H  0.46745663  0.87715632  0.18195846     0.39100
O53         O  0.59462907  0.86249882  0.42986287    -0.80900
O54         O  0.62151801  0.75695198  0.02045069    -0.65600
O55         O  0.62481938  0.84456201  0.47714400    -1.12200
C56         C  0.70760343  0.76365794  0.42987222     1.06000
O57         O  0.68356512  0.75193989  0.02407916    -0.78800
O58         O  0.72755579  0.79063519  0.49020407    -0.66400
Ni59       Ni  0.57906869  0.86760458  0.46520596     1.34900
C60         C  0.72763168  0.82528676  0.48368583     0.84700
O61         O  0.58933659  0.82473888  0.02261816    -0.79300
O62         O  0.56288270  0.87255985  0.00040367    -0.89600
C63         C  0.65039459  0.74443443  0.03192200     0.84300
O64         O  0.54712100  0.82402851  0.46088364    -0.67800
O65         O  0.71059238  0.74398736  0.45033751    -0.87100
C66         C  0.55011900  0.79047707  0.46939565     0.85100
C67         C  0.56735235  0.85340938  0.02112280     1.06700
H68         H  0.63622949  0.75976709  0.46473120     0.38500
O69         O  0.65160505  0.77759421  0.47417200    -1.09700
O70         O  0.70148706  0.84078715  0.47021633    -0.66400
Ni71       Ni  0.65708806  0.82069933  0.45252668     1.26300
O72         O  0.57749847  0.77998507  0.48339185    -0.66600
O73         O  0.68879729  0.79461836  0.42842849    -0.78900
C74         C  0.62550959  0.87562358  0.42116682     0.84500
O75         O  0.65697521  0.86476991  0.43070885    -0.66100
Ni76       Ni  0.69433665  0.74910539  0.48529383     1.27400
Ni77       Ni  0.62091165  0.80229956  0.49908665     1.26100
H78         H  0.63889721  0.86392500  0.48611154     0.39100
O79         O  0.80744862  0.72051175  0.24552291    -0.80900
O80         O  0.82614657  0.60615972  0.33638778    -0.65600
O81         O  0.83506092  0.69338841  0.29351906    -1.12200
C82         C  0.92046207  0.61425172  0.24754437     1.06000
O83         O  0.88857253  0.60410894  0.33854521    -0.78800
O84         O  0.93623162  0.64590235  0.31011060    -0.66400
Ni85       Ni  0.79282699  0.72202855  0.28151741     1.34900
C86         C  0.93425570  0.67944683  0.30146780     0.84700
O87         O  0.79629391  0.67681253  0.33847497    -0.79300
O88         O  0.77531626  0.72744316  0.31618723    -0.89600
C89         C  0.85634507  0.59327876  0.34643614     0.84300
O90         O  0.75956530  0.68058724  0.27625136    -0.67800
O91         O  0.92635296  0.59701322  0.26884680    -0.87100
C92         C  0.75945530  0.64609412  0.28314783     0.85100
C93         C  0.77768714  0.70784948  0.33672425     1.06700
H94         H  0.84697190  0.60683816  0.28160957     0.38500
O95         O  0.86104196  0.62591479  0.29085982    -1.09700
O96         O  0.90912108  0.69002270  0.28571084    -0.66400
Ni97       Ni  0.86616972  0.66839952  0.26909683     1.26300
O98         O  0.78509188  0.63080863  0.29689348    -0.66600
O99         O  0.89746298  0.64197158  0.24538346    -0.78900
C100        C  0.84066995  0.72591274  0.23695792     0.84500
O101        O  0.86912186  0.71131662  0.24775719    -0.66100
Ni102      Ni  0.90600396  0.60195286  0.30340675     1.27400
Ni103      Ni  0.82850526  0.65033811  0.31500317     1.26100
H104        H  0.85013988  0.71111651  0.30323508     0.39100
O105        O  0.00357081  0.04564406  0.37393772    -0.80900
O106        O  0.11879032  0.06581350  0.46461998    -0.65600
O107        O  0.03129181  0.07346652  0.42160281    -1.12200
C108        C  0.11088769  0.15716527  0.37460019     1.06000
O109        O  0.11832058  0.12833328  0.46552683    -0.78800
O110        O  0.08144892  0.17786787  0.43406655    -0.66400
Ni111      Ni  0.00350807  0.03071077  0.40975531     1.34900
C112        C  0.04749486  0.17608893  0.42626881     0.84700
O113        O  0.04857419  0.03505619  0.46711773    -0.79300
O114        O  0.99951789  0.01237901  0.44430363    -0.89600
C115        C  0.13092988  0.09684740  0.47391913     0.84300
O116        O  0.04569490  0.99879508  0.40341726    -0.67800
O117        O  0.13026042  0.16114740  0.39523708    -0.87100
C118        C  0.08009139  0.99862737  0.41034479     0.85100
C119        C  0.01834868  0.01541657  0.46512405     1.06700
H120        H  0.11695345  0.08464922  0.40911017     0.38500
O121        O  0.09833360  0.09921758  0.41845419    -1.09700
O122        O  0.03481929  0.14834715  0.41346530    -0.66400
Ni123      Ni  0.05574516  0.10461212  0.39695206     1.26300
O124        O  0.09468479  0.02335509  0.42518104    -0.66600
O125        O  0.08172756  0.13605378  0.37308815    -0.78900
C126        C  0.99761631  0.07883130  0.36534280     0.84500
O127        O  0.01253759  0.10745947  0.37574315    -0.66100
Ni128      Ni  0.12342492  0.14372290  0.43014957     1.27400
Ni129      Ni  0.07453479  0.06711963  0.44313180     1.26100
H130        H  0.01340876  0.08869665  0.43113593     0.39100
O131        O  0.86268449  0.84353714  0.05358196    -0.80900
O132        O  0.96612267  0.86331156  0.14669967    -0.65600
O133        O  0.88348885  0.86892833  0.10150562    -1.12200
C134        C  0.96676635  0.95056965  0.05598446     1.06000
O135        O  0.97650861  0.92486354  0.14788829    -0.78800
O136        O  0.93948186  0.97206352  0.11521020    -0.66400
Ni137      Ni  0.86284005  0.82310253  0.08797367     1.34900
C138        C  0.90426970  0.97144339  0.11054682     0.84700
O139        O  0.89745548  0.83513828  0.14746876    -0.79300
O140        O  0.86018701  0.80003189  0.12189785    -0.89600
C141        C  0.98022064  0.89194417  0.15752509     0.84300
O142        O  0.90898371  0.79646195  0.08034088    -0.67800
O143        O  0.98704444  0.95145076  0.07630010    -0.87100
C144        C  0.94051446  0.79682833  0.09204311     0.85100
C145        C  0.87393114  0.80845554  0.14397219     1.06700
H146        H  0.96769231  0.87929893  0.09027711     0.38500
O147        O  0.95064764  0.89493906  0.09968363    -1.09700
O148        O  0.88806039  0.94517852  0.09786322    -0.66400
Ni149      Ni  0.90758333  0.90266898  0.07824762     1.26300
O150        O  0.94785187  0.82053911  0.10963061    -0.66600
O151        O  0.93386734  0.93565047  0.05502779    -0.78900
C152        C  0.84952599  0.87597013  0.04751693     0.84500
O153        O  0.86302247  0.90602571  0.05734934    -0.66100
Ni154      Ni  0.97986594  0.93683386  0.11142288     1.27400
Ni155      Ni  0.92483071  0.86500717  0.12412222     1.26100
H156        H  0.86325891  0.88209619  0.11029905     0.39100
O157        O  0.17959965  0.74864023  0.24901547    -0.80900
O158        O  0.15801619  0.86669476  0.33856288    -0.65600
O159        O  0.15027379  0.77845319  0.29618732    -1.12200
C160        C  0.06447015  0.85476725  0.24952337     1.06000
O161        O  0.09557857  0.86592560  0.34052041    -0.78800
O162        O  0.04951689  0.82270066  0.31225856    -0.66400
Ni163      Ni  0.19226721  0.74869618  0.28544538     1.34900
C164        C  0.05147694  0.78989970  0.30245148     0.84700
O165        O  0.18813536  0.79642716  0.34188302    -0.79300
O166        O  0.20791062  0.74445950  0.32059203    -0.89600
C167        C  0.12725477  0.87781091  0.34877211     0.84300
O168        O  0.22602047  0.78957648  0.28005225    -0.67800
O169        O  0.05723985  0.87112357  0.27094757    -0.87100
C170        C  0.22671123  0.82452173  0.28582014     0.85100
C171        C  0.20542743  0.76467762  0.34087963     1.06700
H172        H  0.13768434  0.86526832  0.28396288     0.38500
O173        O  0.12406172  0.84564745  0.29292889    -1.09700
O174        O  0.07645997  0.78077636  0.28623346    -0.66400
Ni175      Ni  0.12022029  0.80313671  0.27104882     1.26300
O176        O  0.20093557  0.84100467  0.29902820    -0.66600
O177        O  0.08981833  0.82941446  0.24691612    -0.78900
C178        C  0.14676787  0.74465880  0.23937788     0.84500
O179        O  0.11837174  0.76037837  0.24947494    -0.66100
Ni180      Ni  0.07808192  0.86755246  0.30542137     1.27400
Ni181      Ni  0.15669084  0.82210274  0.31739333     1.26100
H182        H  0.13459280  0.76125394  0.30582944     0.39100
O183        O  0.39059750  0.60162211  0.43064718    -0.80900
O184        O  0.37225177  0.71129904  0.01921684    -0.65600
O185        O  0.36148189  0.62126651  0.47810467    -1.12200
C186        C  0.27783201  0.70132882  0.43104865     1.06000
O187        O  0.31096387  0.72315528  0.02070602    -0.78800
O188        O  0.26030064  0.67376906  0.49313898    -0.66400
Ni189      Ni  0.40701230  0.59804327  0.46603689     1.34900
C190        C  0.26052808  0.63920143  0.48646700     0.84700
O191        O  0.39909514  0.64159174  0.02240773    -0.79300
O192        O  0.42605055  0.59385297  0.00021439    -0.89600
C193        C  0.34418277  0.72709887  0.02963749     0.84300
O194        O  0.43824115  0.64183246  0.46084044    -0.67800
O195        O  0.27378178  0.71995536  0.45191273    -0.87100
C196        C  0.43557314  0.67537380  0.46944748     0.85100
C197        C  0.42122221  0.61314003  0.02080619     1.06700
H198        H  0.34962392  0.70630443  0.46561215     0.38500
O199        O  0.33460915  0.68833020  0.47511779    -1.09700
O200        O  0.28530386  0.62459603  0.47160179    -0.66400
Ni201      Ni  0.32893410  0.64500944  0.45359926     1.26300
O202        O  0.40879697  0.68594220  0.48384326    -0.66600
O203        O  0.29722600  0.67086869  0.42930797    -0.78900
C204        C  0.35895772  0.58991769  0.42208148     0.84500
O205        O  0.32812467  0.60099827  0.43211665    -0.66100
Ni206      Ni  0.29167127  0.71615591  0.48667700     1.27400
Ni207      Ni  0.36571031  0.66378362  0.49984154     1.26100
H208        H  0.34759115  0.60199123  0.48722291     0.39100
O209        O  0.09814842  0.36935024  0.18241141    -0.80900
O210        O  0.11628015  0.25934381  0.27235936    -0.65600
O211        O  0.12572299  0.34584191  0.23014041    -1.12200
C212        C  0.20789954  0.26539889  0.18272508     1.06000
O213        O  0.17738221  0.24664611  0.27356207    -0.78800
O214        O  0.22513052  0.28926620  0.24502002    -0.66400
Ni215      Ni  0.08087146  0.37041522  0.21775106     1.34900
C216        C  0.22643610  0.32388750  0.23854271     0.84700
O217        O  0.09055779  0.32958108  0.27568432    -0.79300
O218        O  0.06091148  0.37433017  0.25234198    -0.89600
C219        C  0.14412674  0.24239859  0.28229973     0.84300
O220        O  0.04922434  0.32725113  0.21101537    -0.67800
O221        O  0.21082027  0.24543046  0.20306959    -0.87100
C222        C  0.05012329  0.29406880  0.22039644     0.85100
C223        C  0.06703431  0.35672720  0.27348439     1.06700
H224        H  0.13448112  0.26084117  0.21656573     0.38500
O225        O  0.15024991  0.27789192  0.22636371    -1.09700
O226        O  0.20188476  0.33995206  0.22415463    -0.66400
Ni227      Ni  0.15765698  0.32186814  0.20561826     1.26300
O228        O  0.07592185  0.28296909  0.23551698    -0.66600
O229        O  0.18881885  0.29604716  0.18126411    -0.78900
C230        C  0.13065927  0.37985156  0.17473111     0.84500
O231        O  0.16057600  0.36671960  0.18500962    -0.66100
Ni232      Ni  0.19234607  0.24823785  0.23768122     1.27400
Ni233      Ni  0.12027355  0.30288532  0.25145693     1.26100
H234        H  0.14003887  0.36459969  0.23952119     0.39100
O235        O  0.30355274  0.21964642  0.99904589    -0.80900
O236        O  0.32718583  0.10447787  0.09057054    -0.65600
O237        O  0.33255107  0.19189265  0.04702626    -1.12200
C238        C  0.42026348  0.11198264  0.49741513     1.06000
O239        O  0.38937348  0.10780693  0.09223813    -0.78800
O240        O  0.43739313  0.14712679  0.06143412    -0.66400
Ni241      Ni  0.28912470  0.21910535  0.03514002     1.34900
C242        C  0.43467033  0.18030534  0.05216584     0.84700
O243        O  0.29491894  0.17407710  0.09262117    -0.79300
O244        O  0.27085243  0.22279701  0.06981303    -0.89600
C245        C  0.35846532  0.09385108  0.10038555     0.84300
O246        O  0.25863465  0.17615920  0.02882871    -0.67800
O247        O  0.42472619  0.09591323  0.02245375    -0.87100
C248        C  0.25921918  0.14177666  0.03585489     0.85100
C249        C  0.27471718  0.20397745  0.09059878     1.06700
H250        H  0.34685977  0.10542219  0.03568220     0.38500
O251        O  0.36039638  0.12515722  0.04467015    -1.09700
O252        O  0.40721936  0.19033332  0.03801437    -0.66400
Ni253      Ni  0.36384438  0.16713652  0.02253278     1.26300
O254        O  0.28422020  0.12751289  0.05073519    -0.66600
O255        O  0.39781061  0.14021432  0.49579884    -0.78900
C256        C  0.33943237  0.22261779  0.48743763     0.84500
O257        O  0.36516091  0.20938815  0.00050558    -0.66100
Ni258      Ni  0.40612933  0.10294089  0.05714672     1.27400
Ni259      Ni  0.32739154  0.14860886  0.06883815     1.26100
H260        H  0.34748291  0.21014321  0.05642059     0.39100
O261        O  0.50912859  0.55264282  0.12381302    -0.80900
O262        O  0.62650208  0.56898779  0.21288911    -0.65600
O263        O  0.53822136  0.58009509  0.17144888    -1.12200
C264        C  0.61661546  0.66471219  0.12577832     1.06000
O265        O  0.62539539  0.63140560  0.21617408    -0.78800
O266        O  0.58423228  0.68096014  0.18815496    -0.66400
Ni267      Ni  0.50860714  0.53861927  0.15991982     1.34900
C268        C  0.55123883  0.67945847  0.17863369     0.84700
O269        O  0.55630341  0.53991415  0.21610279    -0.79300
O270        O  0.50404085  0.52188166  0.19479052    -0.89600
C271        C  0.63834376  0.59931936  0.22319016     0.84300
O272        O  0.54923089  0.50434346  0.15410960    -0.67800
O273        O  0.63323595  0.67130621  0.14721753    -0.87100
C274        C  0.58420066  0.50359586  0.15963582     0.85100
C275        C  0.52439047  0.52326719  0.21507752     1.06700
H276        H  0.62474730  0.59158396  0.15909682     0.38500
O277        O  0.60545539  0.60530039  0.16840799    -1.09700
O278        O  0.54147903  0.65419259  0.16276997    -0.66400
Ni279      Ni  0.56306809  0.61057845  0.14683204     1.26300
O280        O  0.60061332  0.52888990  0.17310208    -0.66600
O281        O  0.58960818  0.64121563  0.12334763    -0.78900
C282        C  0.50527493  0.58584486  0.11458781     0.84500
O283        O  0.52042585  0.61392563  0.12534911    -0.66100
Ni284      Ni  0.62824591  0.65033063  0.18152438     1.27400
Ni285      Ni  0.58185442  0.57219627  0.19228945     1.26100
H286        H  0.52117621  0.59572281  0.18138316     0.39100
O287        O  0.36618843  0.33691418  0.30528587    -0.80900
O288        O  0.47225893  0.36048543  0.39558785    -0.65600
O289        O  0.38571539  0.36643332  0.35286100    -1.12200
C290        C  0.46235688  0.45162032  0.30591500     1.06000
O291        O  0.48001021  0.42245693  0.39757210    -0.78800
O292        O  0.43548887  0.46776303  0.36810688    -0.66400
Ni293      Ni  0.36303076  0.32082488  0.34059789     1.34900
C294        C  0.40131845  0.46783605  0.36066766     0.84700
O295        O  0.40409449  0.33046405  0.39817055    -0.79300
O296        O  0.35805345  0.30206273  0.37530039    -0.89600
C297        C  0.48586805  0.38934562  0.40646089     0.84300
O298        O  0.40711564  0.29017601  0.33506097    -0.67800
O299        O  0.48102673  0.45571603  0.32680121    -0.87100
C300        C  0.44089885  0.29343004  0.34290454     0.85100
C301        C  0.37657545  0.30754335  0.39612285     1.06700
H302        H  0.47014432  0.37960967  0.33996427     0.38500
O303        O  0.45190143  0.39414598  0.34964491    -1.09700
O304        O  0.38712483  0.44282097  0.34584615    -0.66400
Ni305      Ni  0.40817847  0.39909787  0.32820257     1.26300
O306        O  0.45139975  0.31989541  0.35762681    -0.66600
O307        O  0.43286266  0.43115359  0.30397897    -0.78900
C308        C  0.35295135  0.36811199  0.29698216     0.84500
O309        O  0.36374698  0.39926154  0.30681368    -0.66100
Ni310      Ni  0.47857296  0.43740125  0.36151000     1.27400
Ni311      Ni  0.42879685  0.36243943  0.37434542     1.26100
H312        H  0.36646033  0.38020224  0.36216794     0.39100
O313        O  0.89072561  0.10775233  0.17981465    -0.80900
O314        O  0.86472131  0.20739081  0.27293597    -0.65600
O315        O  0.86009016  0.12527675  0.22706024    -1.12200
C316        C  0.77996487  0.20945100  0.18068558     1.06000
O317        O  0.80342051  0.21895141  0.27313105    -0.78800
O318        O  0.75817244  0.17989916  0.24023993    -0.66400
Ni319      Ni  0.90615871  0.10277481  0.21529890     1.34900
C320        C  0.75824289  0.14543908  0.23322940     0.84700
O321        O  0.89184224  0.13803460  0.27406569    -0.79300
O322        O  0.92403638  0.09558085  0.25036425    -0.89600
C323        C  0.83613459  0.22277369  0.28295440     0.84300
O324        O  0.93693087  0.14712855  0.21120764    -0.67800
O325        O  0.77671084  0.22818628  0.20152602    -0.87100
C326        C  0.93456332  0.17976193  0.22131281     0.85100
C327        C  0.91574161  0.11124619  0.27186804     1.06700
H328        H  0.85041403  0.21090395  0.21671385     0.38500
O329        O  0.83435331  0.19293121  0.22538606    -1.09700
O330        O  0.78430175  0.13043515  0.21961562    -0.66400
Ni331      Ni  0.82880828  0.15077219  0.20274021     1.26300
O332        O  0.90798919  0.18883677  0.23639458    -0.66600
O333        O  0.79797614  0.17813636  0.17890504    -0.78900
C334        C  0.85938285  0.09578976  0.17096928     0.84500
O335        O  0.82823373  0.10758299  0.18027437    -0.66100
Ni336      Ni  0.79160876  0.22147153  0.23661339     1.27400
Ni337      Ni  0.86324336  0.16620971  0.25015817     1.26100
H338        H  0.84573147  0.10541624  0.23521613     0.39100
O339        O  0.68096356  0.25580494  0.99643373    -0.80900
O340        O  0.66059556  0.36908915  0.08912177    -0.65600
O341        O  0.65412835  0.28268635  0.04494020    -1.12200
C342        C  0.56705595  0.35693552  0.50101458     1.06000
O343        O  0.59846443  0.36498084  0.09133567    -0.78800
O344        O  0.54909055  0.32775992  0.06042981    -0.66400
Ni345      Ni  0.69668000  0.25515446  0.03235602     1.34900
C346        C  0.55183998  0.29435554  0.05157440     0.84700
O347        O  0.69355405  0.29975547  0.08975232    -0.79300
O348        O  0.71535617  0.25018747  0.06685337    -0.89600
C349        C  0.62944007  0.37881222  0.09949825     0.84300
O350        O  0.72833643  0.29769395  0.02667060    -0.67800
O351        O  0.56119442  0.37976067  0.02208882    -0.87100
C352        C  0.72816675  0.33212169  0.03378333     0.85100
C353        C  0.71281677  0.26925535  0.08762516     1.06700
H354        H  0.63937087  0.36911796  0.03430111     0.38500
O355        O  0.62611299  0.34938234  0.04340308    -1.09700
O356        O  0.57920537  0.28401013  0.03754028    -0.66400
Ni357      Ni  0.62168393  0.30760796  0.02126994     1.26300
O358        O  0.70296910  0.34667434  0.04839099    -0.66600
O359        O  0.59122542  0.33030997  0.49856993    -0.78900
C360        C  0.65086003  0.24864678  0.48875157     0.84500
O361        O  0.61945881  0.26565220  0.99919455    -0.66100
Ni362      Ni  0.58081398  0.37157068  0.05653618     1.27400
Ni363      Ni  0.66011599  0.32553840  0.06686506     1.26100
H364        H  0.63958593  0.26441131  0.05451993     0.39100
O365        O  0.12686502  0.63156583  0.05563604    -0.80900
O366        O  0.01571714  0.60773643  0.14288994    -0.65600
O367        O  0.10453755  0.60243538  0.10274865    -1.12200
C368        C  0.03150333  0.51492588  0.05450008     1.06000
O369        O  0.00925068  0.54566860  0.14550953    -0.78800
O370        O  0.05638306  0.50046182  0.11794170    -0.66400
Ni371      Ni  0.12768570  0.64805535  0.09106814     1.34900
C372        C  0.09089396  0.50111725  0.11145629     0.84700
O373        O  0.08328219  0.63916033  0.14735376    -0.79300
O374        O  0.13077973  0.66709084  0.12591500    -0.89600
C375        C  0.00212972  0.57891101  0.15377574     0.84300
O376        O  0.08377002  0.67877437  0.08468965    -0.67800
O377        O  0.01252398  0.51062473  0.07515261    -0.87100
C378        C  0.04959716  0.67578151  0.09173426     0.85100
C379        C  0.11105497  0.66197053  0.14620968     1.06700
H380        H  0.02096584  0.58746589  0.08770823     0.38500
O381        O  0.03906533  0.57347538  0.09794906    -1.09700
O382        O  0.10500072  0.52583001  0.09641170    -0.66400
Ni383      Ni  0.08392998  0.56876486  0.07771223     1.26300
O384        O  0.03790640  0.64854698  0.10535626    -0.66600
O385        O  0.06092248  0.53565938  0.05292458    -0.78900
C386        C  0.14065331  0.60016662  0.04801039     0.84500
O387        O  0.12940580  0.56907562  0.05762527    -0.66100
Ni388      Ni  0.01297693  0.52975699  0.10969785     1.27400
Ni389      Ni  0.06028416  0.60628855  0.12294127     1.26100
H390        H  0.12334575  0.58906669  0.11277137     0.39100
O391        O  0.97333106  0.42707232  0.37246183    -0.80900
O392        O  0.85863778  0.40337337  0.46268574    -0.65600
O393        O  0.94655516  0.39691056  0.42018462    -1.12200
C394        C  0.87210265  0.30998291  0.37366666     1.06000
O395        O  0.86001879  0.34072028  0.46471081    -0.78800
O396        O  0.90437762  0.29450968  0.43625336    -0.66400
Ni397      Ni  0.97405513  0.44006240  0.40872682     1.34900
C398        C  0.93680259  0.29623009  0.42601369     0.84700
O399        O  0.92825099  0.43530059  0.46557320    -0.79300
O400        O  0.97872408  0.45631210  0.44362899    -0.89600
C401        C  0.84739696  0.37248837  0.47264261     0.84300
O402        O  0.93185058  0.47227733  0.40338340    -0.67800
O403        O  0.85601407  0.30243482  0.39507802    -0.87100
C404        C  0.89705638  0.47134020  0.40909094     0.85100
C405        C  0.95943363  0.45337745  0.46420469     1.06700
H406        H  0.86027938  0.38255551  0.40817747     0.38500
O407        O  0.88020245  0.36926573  0.41721553    -1.09700
O408        O  0.94559286  0.32214927  0.41028854    -0.66400
Ni409      Ni  0.92244506  0.36620771  0.39526229     1.26300
O410        O  0.88212092  0.44556421  0.42287791    -0.66600
O411        O  0.89685818  0.33566301  0.37104800    -0.78900
C412        C  0.97909117  0.39417126  0.36336504     0.84500
O413        O  0.96486670  0.36527219  0.37370652    -0.66100
Ni414      Ni  0.85912229  0.32305622  0.42959566     1.27400
Ni415      Ni  0.90305901  0.40256969  0.44150655     1.26100
H416        H  0.96448476  0.38163801  0.42968934     0.39100
C417        C  0.02231779  0.47135711  0.98764620    -0.12300
C418        C  0.97562963  0.47085864  0.48772524     0.04700
C419        C  0.96077415  0.47304643  0.00806677    -0.07500
C420        C  0.97757122  0.48847058  0.03001135    -0.08300
C421        C  0.01652891  0.49613224  0.03109462    -0.02800
C422        C  0.03900707  0.48755589  0.00948089     0.04000
N423        N  0.07883069  0.49425215  0.00947943     0.66500
H424        H  0.03112207  0.47740503  0.47065214     0.15400
H425        H  0.95946062  0.49586255  0.04603456     0.15100
N426        N  0.91504329  0.46777110  0.51143395     0.74200
O427        O  0.10096336  0.46906642  0.01796998    -0.39300
O428        O  0.09198098  0.52122900  0.99639292    -0.39200
O429        O  0.90495386  0.44561539  0.02248224    -0.39900
O430        O  0.89163978  0.49268753  0.50424829    -0.40000
C431        C  0.75545095  0.37755226  0.50938446    -0.12300
C432        C  0.75935206  0.35534752  0.02366654     0.04700
C433        C  0.79692880  0.34618045  0.03040451    -0.07500
C434        C  0.82658726  0.35588549  0.01397746    -0.08300
C435        C  0.82039766  0.37186847  0.49427404    -0.02800
C436        C  0.78434882  0.38895387  0.49256072     0.04000
N437        N  0.77518877  0.41373278  0.47175532     0.66500
H438        H  0.72693242  0.38786888  0.50621457     0.15400
H439        H  0.85490752  0.34595859  0.01837689     0.15100
N440        N  0.80499210  0.32348546  0.05248534     0.74200
O441        O  0.76361641  0.40002234  0.45075946    -0.39300
O442        O  0.77166635  0.44878161  0.47591048    -0.39200
O443        O  0.81349867  0.28902639  0.04952661    -0.39900
O444        O  0.81223357  0.33949311  0.07362083    -0.40000
C445        C  0.87775399  0.26409616  0.30802644    -0.12300
C446        C  0.84269203  0.24595826  0.30613066     0.04700
C447        C  0.81686322  0.24907078  0.32662802    -0.07500
C448        C  0.82678257  0.26994310  0.34862596    -0.08300
C449        C  0.86216807  0.28780350  0.35049337    -0.02800
C450        C  0.88786132  0.28443343  0.32982516     0.04000
N451        N  0.92516946  0.29985157  0.33101067     0.66500
H452        H  0.89808621  0.26196614  0.29251692     0.15400
H453        H  0.80677862  0.27205403  0.36430380     0.15100
N454        N  0.78149057  0.22974937  0.32603825     0.74200
O455        O  0.93309187  0.32872986  0.31781814    -0.39300
O456        O  0.95155432  0.28044351  0.34078663    -0.39200
O457        O  0.77896830  0.19736904  0.33613905    -0.39900
O458        O  0.75174446  0.24798246  0.32073877    -0.40000
C459        C  0.77313309  0.21008083  0.13319401    -0.12300
C460        C  0.76263896  0.22528962  0.15709446     0.04700
C461        C  0.73682485  0.25597741  0.15770655    -0.07500
C462        C  0.72195824  0.27020194  0.13483122    -0.08300
C463        C  0.73194879  0.25462654  0.11094395    -0.02800
C464        C  0.75825598  0.22435564  0.11028049     0.04000
N465        N  0.77079841  0.20797454  0.08664243     0.66500
H466        H  0.79341267  0.18705149  0.13210872     0.15400
H467        H  0.70166378  0.29320771  0.13600090     0.15100
N468        N  0.72444144  0.27261693  0.18130340     0.74200
O469        O  0.80117280  0.21945954  0.07674864    -0.39300
O470        O  0.75728015  0.17665486  0.07947877    -0.39200
O471        O  0.73791354  0.30405579  0.18827050    -0.39900
O472        O  0.69457949  0.26072292  0.19168820    -0.40000
C473        C  0.49889586  0.40389055  0.45275672    -0.12300
C474        C  0.50793021  0.38368178  0.43030806     0.04700
C475        C  0.53635733  0.35575905  0.43137295    -0.07500
C476        C  0.55545280  0.34882485  0.45430022    -0.08300
C477        C  0.54619805  0.36805928  0.47716336    -0.02800
C478        C  0.51715650  0.39580688  0.47624759     0.04000
N479        N  0.50443753  0.41458987  0.49898869     0.66500
H480        H  0.47637243  0.42477132  0.45232636     0.15400
H481        H  0.57731604  0.32725315  0.45404687     0.15100
N482        N  0.54643553  0.33395158  0.40926683     0.74200
O483        O  0.51493985  0.44806720  0.50347688    -0.39300
O484        O  0.49158183  0.43014825  0.01037050    -0.39200
O485        O  0.57705539  0.34109769  0.39790950    -0.39900
O486        O  0.53096293  0.30219060  0.40578965    -0.40000
C487        C  0.64659193  0.44179451  0.11791588    -0.12300
C488        C  0.62756459  0.40709976  0.12047783     0.04700
C489        C  0.60047127  0.40318578  0.14014672    -0.07500
C490        C  0.58958749  0.43469679  0.15458142    -0.08300
C491        C  0.60535202  0.47039200  0.15001866    -0.02800
C492        C  0.63564316  0.47353113  0.13258998     0.04000
N493        N  0.65260708  0.50940701  0.12755833     0.66500
H494        H  0.66747014  0.44526305  0.10290396     0.15400
H495        H  0.56675559  0.43177969  0.16829994     0.15100
N496        N  0.58203363  0.36784424  0.14464979     0.74200
O497        O  0.68326282  0.51793227  0.13853022    -0.39300
O498        O  0.64082815  0.52929348  0.10902491    -0.39200
O499        O  0.59492653  0.34584106  0.16167838    -0.39900
O500        O  0.54905038  0.36268932  0.13607674    -0.40000
C501        C  0.51408867  0.48508241  0.28321683    -0.12300
C502        C  0.47700534  0.47089811  0.28268155     0.04700
C503        C  0.45575316  0.47435135  0.25977052    -0.07500
C504        C  0.47193965  0.49116582  0.23815667    -0.08300
C505        C  0.50918796  0.50507109  0.23860658    -0.02800
C506        C  0.53023437  0.50202415  0.26165431     0.04000
N507        N  0.56816193  0.51553193  0.26363023     0.66500
H508        H  0.53118715  0.48266170  0.30045708     0.15400
H509        H  0.45480819  0.49354415  0.22093161     0.15100
N510        N  0.41749292  0.46167922  0.25809953     0.74200
O511        O  0.57415283  0.54833931  0.27236003    -0.39300
O512        O  0.59529864  0.49240116  0.26180991    -0.39200
O513        O  0.39089748  0.48499064  0.26168109    -0.39900
O514        O  0.41041932  0.42987880  0.24811808    -0.40000
C515        C  0.53132475  0.22731286  0.05814078    -0.12300
C516        C  0.52162663  0.26596813  0.05667721     0.04700
C517        C  0.48295431  0.27600161  0.05677392    -0.07500
C518        C  0.45520295  0.24765133  0.05672164    -0.08300
C519        C  0.46488914  0.20892904  0.05688079    -0.02800
C520        C  0.50353900  0.19894334  0.05840051     0.04000
N521        N  0.51529337  0.16018181  0.05797458     0.66500
H522        H  0.56082105  0.21892176  0.05801391     0.15400
H523        H  0.42575436  0.25606781  0.05559855     0.15100
N524        N  0.47127268  0.31466904  0.05468102     0.74200
O525        O  0.52021634  0.14375005  0.03667951    -0.39300
O526        O  0.52771698  0.14502488  0.07828647    -0.39200
O527        O  0.46044658  0.32738589  0.03320708    -0.39900
O528        O  0.46478880  0.33353168  0.07481944    -0.40000
C529        C  0.38453709  0.25484387  0.45890832    -0.12300
C530        C  0.34681287  0.24501640  0.46391249     0.04700
C531        C  0.31846002  0.25632689  0.44628472    -0.07500
C532        C  0.32851464  0.27643174  0.42405674    -0.08300
C533        C  0.36637680  0.28588755  0.41926367    -0.02800
C534        C  0.39448172  0.27485836  0.43702096     0.04000
N535        N  0.43364190  0.28240556  0.43269270     0.66500
H536        H  0.40702439  0.24675790  0.47201264     0.15400
H537        H  0.30660844  0.28498784  0.41064154     0.15100
N538        N  0.27960841  0.24737469  0.45038096     0.74200
O539        O  0.44941853  0.30920339  0.44462333    -0.39300
O540        O  0.45374057  0.25798475  0.42137952    -0.39200
O541        O  0.25771229  0.27225863  0.45948766    -0.39900
O542        O  0.26586809  0.21803180  0.44018341    -0.40000
C543        C  0.02952044  0.22821313  0.21132387    -0.12300
C544        C  0.01968371  0.26649901  0.21476192     0.04700
C545        C  0.98118449  0.27622081  0.21711239    -0.07500
C546        C  0.95381497  0.24757837  0.21800344    -0.08300
C547        C  0.96384924  0.20900383  0.21610082    -0.02800
C548        C  0.00209950  0.19962219  0.21160431     0.04000
N549        N  0.01407380  0.16112686  0.20903361     0.66500
H550        H  0.05900794  0.22024805  0.20946532     0.15400
H551        H  0.92457488  0.25558017  0.22109806     0.15100
N552        N  0.96965223  0.31468158  0.22077375     0.74200
O553        O  0.02018100  0.14780490  0.18690479    -0.39300
O554        O  0.02603657  0.14345530  0.22851902    -0.39200
O555        O  0.95689885  0.33327768  0.20192299    -0.39900
O556        O  0.96506593  0.32726032  0.24327497    -0.40000
C557        C  0.29530024  0.32942650  0.24231800    -0.12300
C558        C  0.25972972  0.34489118  0.24788505     0.04700
C559        C  0.25702343  0.37447839  0.26601324    -0.07500
C560        C  0.28928987  0.38537427  0.28004593    -0.08300
C561        C  0.32399493  0.36662165  0.27644725    -0.02800
C562        C  0.32728249  0.33996603  0.25633695     0.04000
N563        N  0.36248207  0.32162513  0.25094286     0.66500
H564        H  0.29779305  0.30697760  0.22819317     0.15400
H565        H  0.28627192  0.40571711  0.29553061     0.15100
N566        N  0.22117738  0.39042970  0.27256796     0.74200
O567        O  0.36843259  0.28856191  0.25927916    -0.39300
O568        O  0.38323367  0.33453947  0.23334035    -0.39200
O569        O  0.20132793  0.37485367  0.28965354    -0.39900
O570        O  0.21287760  0.42341541  0.26506845    -0.40000
C571        C  0.20804876  0.25637546  0.13550810    -0.12300
C572        C  0.22630248  0.25116391  0.15921642     0.04700
C573        C  0.26018316  0.23001673  0.16018524    -0.07500
C574        C  0.27458574  0.21375778  0.13774251    -0.08300
C575        C  0.25629435  0.21879831  0.11400509    -0.02800
C576        C  0.22261667  0.24040147  0.11300210     0.04000
N577        N  0.20199211  0.24513638  0.08954725     0.66500
H578        H  0.18163983  0.27198482  0.13452212     0.15400
H579        H  0.30107702  0.19830560  0.13877285     0.15100
N580        N  0.28150123  0.22671932  0.18346970     0.74200
O581        O  0.17861645  0.22011540  0.08275996    -0.39300
O582        O  0.20103618  0.27721772  0.07887170    -0.39200
O583        O  0.28475131  0.19487181  0.19426691    -0.39900
O584        O  0.30292096  0.25347309  0.19019666    -0.40000
C585        C  0.02680008  0.40291417  0.29803467    -0.12300
C586        C  0.04560174  0.36770163  0.29681139     0.04700
C587        C  0.04308489  0.34283396  0.31806450    -0.07500
C588        C  0.02265039  0.35338356  0.33962456    -0.08300
C589        C  0.00314237  0.38787496  0.34068607    -0.02800
C590        C  0.00546066  0.41309320  0.31974302     0.04000
N591        N  0.98457394  0.44780051  0.31948853     0.66500
H592        H  0.02806710  0.42234632  0.28194709     0.15400
H593        H  0.02108292  0.33350972  0.35548377     0.15100
N594        N  0.05828795  0.30529681  0.31745435     0.74200
O595        O  0.00126946  0.47853040  0.32429417    -0.39300
O596        O  0.95205582  0.44858977  0.30947902    -0.39200
O597        O  0.08864546  0.29814825  0.32930933    -0.39900
O598        O  0.03699882  0.27835139  0.31095273    -0.40000
C599        C  0.10438000  0.43311690  0.11471996    -0.12300
C600        C  0.11426184  0.47007432  0.12191841     0.04700
C601        C  0.13744239  0.47547175  0.14369127    -0.07500
C602        C  0.14667546  0.44439172  0.15943368    -0.08300
C603        C  0.13254245  0.40816141  0.15388007    -0.02800
C604        C  0.11318812  0.40224472  0.13052028     0.04000
N605        N  0.09995987  0.36545695  0.12348962     0.66500
H606        H  0.08660903  0.42861607  0.09798221     0.15400
H607        H  0.16158143  0.44930036  0.17735662     0.15100
N608        N  0.14776027  0.51270880  0.15178725     0.74200
O609        O  0.06646017  0.35614545  0.12871489    -0.39300
O610        O  0.11847621  0.34611356  0.10742377    -0.39200
O611        O  0.12719078  0.53021375  0.16766174    -0.39900
O612        O  0.18051265  0.52482211  0.14707011    -0.40000
C613        C  0.19239645  0.62737013  0.49020115    -0.12300
C614        C  0.23279043  0.62261633  0.99787224     0.04700
C615        C  0.23869414  0.60186496  0.02069114    -0.07500
C616        C  0.20759198  0.59078467  0.03559665    -0.08300
C617        C  0.17070363  0.60108012  0.02839266    -0.02800
C618        C  0.16481718  0.61953947  0.00468382     0.04000
N619        N  0.12495395  0.63176314  0.49915334     0.66500
H620        H  0.18783789  0.64625255  0.47404163     0.15400
H621        H  0.21253446  0.57730419  0.05402756     0.15100
N622        N  0.27600988  0.59592953  0.03050726     0.74200
O623        O  0.11584314  0.66523376  0.50508452    -0.39300
O624        O  0.11069976  0.60908615  0.98036598    -0.39200
O625        O  0.28988966  0.61940371  0.04619106    -0.39900
O626        O  0.29202335  0.56429739  0.02728181    -0.40000
C627        C  0.45187031  0.63458259  0.06063391    -0.12300
C628        C  0.44336049  0.60426924  0.04419757     0.04700
C629        C  0.45566573  0.56749688  0.05090589    -0.07500
C630        C  0.47561644  0.56181445  0.07398263    -0.08300
C631        C  0.48385720  0.59233652  0.09046592    -0.02800
C632        C  0.47164349  0.62914828  0.08344142     0.04000
N633        N  0.47805647  0.66147937  0.09946466     0.66500
H634        H  0.44308680  0.66317709  0.05579043     0.15400
H635        H  0.48472391  0.53340443  0.07895973     0.15100
N636        N  0.44705231  0.53554037  0.03511428     0.74200
O637        O  0.50564103  0.68295058  0.09481493    -0.39300
O638        O  0.45207135  0.67293844  0.11414327    -0.39200
O639        O  0.47190944  0.52259738  0.02010400    -0.39900
O640        O  0.41839605  0.51575369  0.04016012    -0.40000
C641        C  0.39383814  0.53632363  0.36453737    -0.12300
C642        C  0.37875620  0.50041470  0.36946684     0.04700
C643        C  0.34999235  0.49669865  0.38796074    -0.07500
C644        C  0.34026077  0.52798888  0.40335975    -0.08300
C645        C  0.35928349  0.56261613  0.40061702    -0.02800
C646        C  0.38460300  0.56727876  0.37999672     0.04000
N647        N  0.40344338  0.60248001  0.37576122     0.66500
H648        H  0.41577196  0.53953531  0.35018138     0.15400
H649        H  0.32062772  0.52411191  0.41908978     0.15100
N650        N  0.33370092  0.46061563  0.39332628     0.74200
O651        O  0.43644834  0.60709567  0.38444186    -0.39300
O652        O  0.39107908  0.62468442  0.35867494    -0.39200
O653        O  0.34497312  0.44193824  0.41256963    -0.39900
O654        O  0.30347756  0.45117733  0.38214876    -0.40000
C655        C  0.15783200  0.69604993  0.17407171    -0.12300
C656        C  0.12065830  0.68337180  0.16987615     0.04700
C657        C  0.09317944  0.69018385  0.18899824    -0.07500
C658        C  0.10321008  0.70866878  0.21162211    -0.08300
C659        C  0.14006964  0.72193996  0.21580971    -0.02800
C660        C  0.16780253  0.71500221  0.19688249     0.04000
N661        N  0.20593698  0.72720594  0.20030242     0.66500
H662        H  0.17942909  0.69074675  0.15977058     0.15400
H663        H  0.08137807  0.71345573  0.22585212     0.15100
N664        N  0.05435784  0.68038538  0.18528923     0.74200
O665        O  0.22879113  0.70647819  0.21260815    -0.39300
O666        O  0.21846729  0.75408088  0.18684582    -0.39200
O667        O  0.03938771  0.65562950  0.19944466    -0.39900
O668        O  0.03362975  0.70121731  0.17143042    -0.40000
C669        C  0.22806813  0.74132148  0.41058566    -0.12300
C670        C  0.25919639  0.71675639  0.40773069     0.04700
C671        C  0.27289387  0.70918843  0.38275997    -0.07500
C672        C  0.25508767  0.72544347  0.36145622    -0.08300
C673        C  0.22389376  0.74975832  0.36429822    -0.02800
C674        C  0.21048282  0.75789668  0.38923402     0.04000
N675        N  0.17837033  0.78186174  0.39323875     0.66500
H676        H  0.21704808  0.74760950  0.42954395     0.15400
H677        H  0.26625770  0.71939014  0.34249640     0.15100
N678        N  0.30603148  0.68676108  0.37864192     0.74200
O679        O  0.14588547  0.76742194  0.39472473    -0.39300
O680        O  0.18317979  0.81582953  0.40004718    -0.39200
O681        O  0.30267894  0.65281844  0.37138671    -0.39900
O682        O  0.33760470  0.70295267  0.37655178    -0.40000
C683        C  0.95790253  0.73010929  0.08085905    -0.12300
C684        C  0.96948416  0.76727380  0.08640848     0.04700
C685        C  0.00856930  0.77437596  0.08963227    -0.07500
C686        C  0.03456587  0.74433542  0.08924688    -0.08300
C687        C  0.02258117  0.70686380  0.08587970    -0.02800
C688        C  0.98400272  0.70000004  0.08067003     0.04000
N689        N  0.97091165  0.66259667  0.07521294     0.66500
H690        H  0.92819556  0.72401642  0.07799945     0.15400
H691        H  0.06409454  0.75021631  0.09308037     0.15100
N692        N  0.02239965  0.81188549  0.09374290     0.74200
O693        O  0.95522310  0.64352273  0.09264931    -0.39300
O694        O  0.96851433  0.65168915  0.05215986    -0.39200
O695        O  0.03251031  0.82178435  0.11603286    -0.39900
O696        O  0.03284458  0.83124069  0.07467359    -0.40000
C697        C  0.89481346  0.04018541  0.11425964    -0.12300
C698        C  0.88233276  0.00376382  0.12062864     0.04700
C699        C  0.85588963  0.99941738  0.14064839    -0.07500
C700        C  0.84491164  0.03111706  0.15525665    -0.08300
C701        C  0.86054109  0.06691590  0.15044630    -0.02800
C702        C  0.88436529  0.07160997  0.12900714     0.04000
N703        N  0.90028483  0.10767960  0.12302152     0.66500
H704        H  0.91520149  0.04383956  0.09893872     0.15400
H705        H  0.82709950  0.02701828  0.17194066     0.15100
N706        N  0.84384624  0.96262068  0.14848799     0.74200
O707        O  0.93371906  0.11488325  0.12990904    -0.39300
O708        O  0.88474143  0.12800006  0.10604454    -0.39200
O709        O  0.85919659  0.94706999  0.16772449    -0.39900
O710        O  0.81347621  0.94928503  0.13959188    -0.40000
C711        C  0.01963395  0.84968812  0.18352552    -0.12300
C712        C  0.00193642  0.88507647  0.18133372     0.04700
C713        C  0.00425388  0.91084687  0.20201911    -0.07500
C714        C  0.02434769  0.90060998  0.22436939    -0.08300
C715        C  0.04237183  0.86504604  0.22628904    -0.02800
C716        C  0.03935590  0.83939944  0.20549907     0.04000
N717        N  0.05507298  0.80206675  0.20649304     0.66500
H718        H  0.01801061  0.82927547  0.16798193     0.15400
H719        H  0.02599541  0.92058554  0.24015784     0.15100
N720        N  0.98531611  0.94663630  0.20107418     0.74200
O721        O  0.03434430  0.77478231  0.21313618    -0.39300
O722        O  0.08580927  0.79535862  0.19508424    -0.39200
O723        O  0.95240902  0.94973412  0.21014521    -0.39900
O724        O  0.00380367  0.97610953  0.19581541    -0.40000
C725        C  0.00410911  0.27457769  0.42706305    -0.12300
C726        C  0.96570875  0.26633404  0.43135952     0.04700
C727        C  0.95570735  0.22858724  0.43731721    -0.07500
C728        C  0.98325128  0.19992793  0.43686099    -0.08300
C729        C  0.02111853  0.20796374  0.43115653    -0.02800
C730        C  0.03171160  0.24593034  0.42695334     0.04000
N731        N  0.06959144  0.25543953  0.42005069     0.66500
H732        H  0.01259875  0.30325511  0.42247912     0.15400
H733        H  0.97470867  0.17088345  0.44019524     0.15100
N734        N  0.91740445  0.21824871  0.44217956     0.74200
O735        O  0.07994930  0.25239009  0.39693467    -0.39300
O736        O  0.09010589  0.27323034  0.43580410    -0.39200
O737        O  0.89920174  0.20008583  0.42533636    -0.39900
O738        O  0.90500777  0.21964188  0.46488756    -0.40000
C739        C  0.97413946  0.05792090  0.32223134    -0.12300
C740        C  0.97424340  0.08474257  0.34222263     0.04700
C741        C  0.95303144  0.11831021  0.33947146    -0.07500
C742        C  0.93444849  0.12575609  0.31649691    -0.08300
C743        C  0.93530838  0.09990930  0.29590586    -0.02800
C744        C  0.95458866  0.06509756  0.29917461     0.04000
N745        N  0.95349528  0.03633390  0.27984570     0.66500
H746        H  0.98966741  0.03158482  0.32435808     0.15400
H747        H  0.91927670  0.15239164  0.31492347     0.15100
N748        N  0.94878968  0.14459449  0.36023262     0.74200
O749        O  0.98205380  0.03069099  0.26586656    -0.39300
O750        O  0.92745531  0.01201555  0.28029760    -0.39200
O751        O  0.96719744  0.17514206  0.36008744    -0.39900
O752        O  0.92133969  0.14101634  0.37546744    -0.40000
C753        C  0.08999014  0.93029028  0.40592844    -0.12300
C754        C  0.10294917  0.96685274  0.40060923     0.04700
C755        C  0.13104261  0.97195036  0.38176624    -0.07500
C756        C  0.14316729  0.94079112  0.36701679    -0.08300
C757        C  0.12655476  0.90504794  0.37030999    -0.02800
C758        C  0.10121288  0.89953088  0.39087791     0.04000
N759        N  0.08368530  0.86363615  0.39508153     0.66500
H760        H  0.06834245  0.92614494  0.42036988     0.15400
H761        H  0.16208274  0.94555441  0.35099534     0.15100
N762        N  0.14333408  0.00908308  0.37487559     0.74200
O763        O  0.09786041  0.84110896  0.41130062    -0.39300
O764        O  0.05026917  0.85837963  0.38735270    -0.39200
O765        O  0.17653943  0.01931709  0.38027850    -0.39900
O766        O  0.12384567  0.02855070  0.35936281    -0.40000
C767        C  0.03416220  0.99332181  0.00692263    -0.12300
C768        C  0.00409909  0.99529701  0.48827349     0.04700
C769        C  0.96735241  0.97947548  0.48947596    -0.07500
C770        C  0.95751755  0.97661572  0.01193302    -0.08300
C771        C  0.98224751  0.96785357  0.03223753    -0.02800
C772        C  0.02123317  0.97579302  0.02930529     0.04000
N773        N  0.04847134  0.96492075  0.04828951     0.66500
H774        H  0.06410124  0.99910647  0.00511644     0.15400
H775        H  0.92625868  0.95151324  0.51263382     0.15100
N776        N  0.94199598  0.98053465  0.46804314     0.74200
O777        O  0.06302608  0.93225742  0.04731530    -0.39300
O778        O  0.06366125  0.98999365  0.06214996    -0.39200
O779        O  0.93948967  0.95195603  0.45354848    -0.39900
O780        O  0.91655547  0.00565000  0.46719802    -0.40000
C781        C  0.09617105  0.17802486  0.33009232    -0.12300
C782        C  0.12151716  0.17845368  0.35099058     0.04700
C783        C  0.15539909  0.19944047  0.34861140    -0.07500
C784        C  0.16310864  0.21893967  0.32570056    -0.08300
C785        C  0.13731660  0.21868886  0.30517730    -0.02800
C786        C  0.10368981  0.19765929  0.30745559     0.04000
N787        N  0.07754496  0.19452754  0.28650659     0.66500
H788        H  0.07003775  0.16220101  0.33111057     0.15400
H789        H  0.18879361  0.23542951  0.32430259     0.15100
N790        N  0.18190922  0.20209240  0.36929857     0.74200
O791        O  0.08530970  0.17292625  0.26790652    -0.39300
O792        O  0.04416553  0.20662985  0.28904366    -0.39200
O793        O  0.21238976  0.18349729  0.36826866    -0.39900
O794        O  0.17860864  0.22853568  0.38549427    -0.40000
C795        C  0.19554136  0.07968819  0.48918919    -0.12300
C796        C  0.16072116  0.09770225  0.49387306     0.04700
C797        C  0.16015911  0.12157729  0.01774468    -0.07500
C798        C  0.19130239  0.13018195  0.03321812    -0.08300
C799        C  0.22779649  0.11875211  0.02613312    -0.02800
C800        C  0.22803418  0.08980158  0.50326669     0.04000
N801        N  0.26373057  0.07383319  0.49635248     0.66500
H802        H  0.19827101  0.06027909  0.47313750     0.15400
H803        H  0.18746676  0.14905656  0.04947494     0.15100
N804        N  0.12400313  0.13684598  0.02432325     0.74200
O805        O  0.27448806  0.04336010  0.50676469    -0.39300
O806        O  0.28626950  0.10342921  0.97993819    -0.39200
O807        O  0.10374148  0.11961317  0.04041528    -0.39900
O808        O  0.11638855  0.17084327  0.01881839    -0.40000
C809        C  0.00155791  0.69555614  0.30855580    -0.12300
C810        C  0.96371716  0.70728231  0.30834840     0.04700
C811        C  0.95530118  0.74629538  0.31097352    -0.07500
C812        C  0.98459014  0.77290343  0.31116980    -0.08300
C813        C  0.02235672  0.76132359  0.30867351    -0.02800
C814        C  0.03081847  0.72213065  0.30866078     0.04000
N815        N  0.06899612  0.70883730  0.30816055     0.66500
H816        H  0.00852321  0.66571303  0.30700340     0.15400
H817        H  0.97755028  0.80280506  0.31166090     0.15100
N818        N  0.91714847  0.75937491  0.31306210     0.74200
O819        O  0.08635791  0.70363398  0.32909299    -0.39300
O820        O  0.08223099  0.69497363  0.28768945    -0.39200
O821        O  0.90380195  0.76681301  0.33496942    -0.39900
O822        O  0.90001618  0.77106817  0.29329973    -0.40000
C823        C  0.66035749  0.62246553  0.26491797    -0.12300
C824        C  0.66677638  0.59887312  0.24374977     0.04700
C825        C  0.70314384  0.58355006  0.23973290    -0.07500
C826        C  0.73337096  0.59588253  0.25508937    -0.08300
C827        C  0.72745572  0.62330996  0.27418362    -0.02800
C828        C  0.69035922  0.63488059  0.28007608     0.04000
N829        N  0.68323112  0.66257205  0.29951099     0.66500
H830        H  0.63240083  0.63414089  0.26824937     0.15400
H831        H  0.76188189  0.58705511  0.25033653     0.15100
N832        N  0.71073430  0.55982040  0.21808027     0.74200
O833        O  0.67518367  0.69601565  0.29288882    -0.39300
O834        O  0.67603069  0.65184562  0.32210386    -0.39200
O835        O  0.72122251  0.57446199  0.19716616    -0.39900
O836        O  0.71348586  0.52446922  0.22115457    -0.40000
C837        C  0.82360002  0.74381739  0.19195409    -0.12300
C838        C  0.84711669  0.74825900  0.21352052     0.04700
C839        C  0.87873284  0.77224325  0.21188471    -0.07500
C840        C  0.88650969  0.79089086  0.18905854    -0.08300
C841        C  0.86353848  0.78647454  0.16718836    -0.02800
C842        C  0.83179519  0.76232700  0.16870989     0.04000
N843        N  0.80788280  0.75593024  0.14698336     0.66500
H844        H  0.79951643  0.72500069  0.19289622     0.15400
H845        H  0.91117760  0.80899596  0.18865179     0.15100
N846        N  0.90269473  0.77923730  0.23353670     0.74200
O847        O  0.81449369  0.72815382  0.13235957    -0.39300
O848        O  0.77638196  0.77267322  0.14558184    -0.39200
O849        O  0.93328372  0.76098320  0.23565551    -0.39900
O850        O  0.89873910  0.80983840  0.24581509    -0.40000
C851        C  0.93563801  0.62456512  0.20143357    -0.12300
C852        C  0.94099872  0.60252340  0.22370338     0.04700
C853        C  0.96532290  0.57055462  0.22214970    -0.07500
C854        C  0.98380664  0.56198076  0.19888012    -0.08300
C855        C  0.97895164  0.58497803  0.17708758    -0.02800
C856        C  0.95407780  0.61613951  0.17848853     0.04000
N857        N  0.94618711  0.63898438  0.15642128     0.66500
H858        H  0.91692781  0.64893293  0.20159932     0.15400
H859        H  0.00307143  0.53806749  0.19813810     0.15100
N860        N  0.97226455  0.54692281  0.24395624     0.74200
O861        O  0.91925120  0.62993335  0.14174225    -0.39300
O862        O  0.96005079  0.67178072  0.15489078    -0.39200
O863        O  0.95488762  0.51593178  0.24603307    -0.39900
O864        O  0.00082869  0.55302107  0.25791394    -0.40000
C865        C  0.88693547  0.53964647  0.40518502    -0.12300
C866        C  0.87438346  0.50314303  0.39903184     0.04700
C867        C  0.84867559  0.49839602  0.37851115    -0.07500
C868        C  0.83890506  0.52969707  0.36307769    -0.08300
C869        C  0.85533923  0.56530615  0.36750619    -0.02800
C870        C  0.87804598  0.57051804  0.38950825     0.04000
N871        N  0.89514611  0.60629081  0.39485375     0.66500
H872        H  0.90687462  0.54357531  0.42082738     0.15400
H873        H  0.82181604  0.52522397  0.34602386     0.15100
N874        N  0.83643468  0.46145811  0.37102028     0.74200
O875        O  0.87953455  0.62857305  0.41058706    -0.39300
O876        O  0.92903963  0.61186172  0.38843221    -0.39200
O877        O  0.80345775  0.45080581  0.37656444    -0.39900
O878        O  0.85554636  0.44274206  0.35493077    -0.40000
C879        C  0.53100769  0.72317747  0.46363555    -0.12300
C880        C  0.52055222  0.76171558  0.46385623     0.04700
C881        C  0.48184655  0.77114060  0.46189488    -0.07500
C882        C  0.45463952  0.74232130  0.46198683    -0.08300
C883        C  0.46510578  0.70389024  0.46369409    -0.02800
C884        C  0.50382467  0.69440116  0.46344503     0.04000
N885        N  0.51608973  0.65590069  0.46539223     0.66500
H886        H  0.56058012  0.71523361  0.46485042     0.15400
H887        H  0.42499198  0.75017541  0.46197888     0.15100
N888        N  0.46942592  0.80970512  0.46194616     0.74200
O889        O  0.52772984  0.63883544  0.44559681    -0.39300
O890        O  0.52154073  0.64140588  0.48726785    -0.39200
O891        O  0.45692149  0.82425958  0.44145327    -0.39900
O892        O  0.46407410  0.82648026  0.48306727    -0.40000
C893        C  0.66657197  0.72897767  0.07735484    -0.12300
C894        C  0.64452661  0.72219362  0.05538463     0.04700
C895        C  0.61483042  0.69589653  0.05655235    -0.07500
C896        C  0.60710299  0.67754986  0.07950158    -0.08300
C897        C  0.62807377  0.68486867  0.10199343    -0.02800
C898        C  0.65844088  0.71082833  0.10070373     0.04000
N899        N  0.68080303  0.71972835  0.12279102     0.66500
H900        H  0.68931424  0.74942830  0.07663815     0.15400
H901        H  0.58390242  0.65760539  0.07950422     0.15100
N902        N  0.59249224  0.68689129  0.03441676     0.74200
O903        O  0.71234246  0.70355269  0.12589845    -0.39300
O904        O  0.67310832  0.74897230  0.13576130    -0.39200
O905        O  0.59960643  0.65698723  0.02200309    -0.39900
O906        O  0.56107746  0.70327224  0.03116636    -0.40000
C907        C  0.75109444  0.87356517  0.02043260    -0.12300
C908        C  0.75790317  0.85469288  0.99718044     0.04700
C909        C  0.79725546  0.83408260  0.48890448    -0.07500
C910        C  0.82666881  0.84459433  0.50540703    -0.08300
C911        C  0.81872029  0.87735825  0.02850994    -0.02800
C912        C  0.78123630  0.88487725  0.03620934     0.04000
N913        N  0.77323421  0.89898339  0.06137833     0.66500
H914        H  0.72245560  0.87589548  0.02763309     0.15400
H915        H  0.85420279  0.83151036  0.50297228     0.15100
N916        N  0.80468640  0.80636394  0.46954264     0.74200
O917        O  0.76202206  0.93272488  0.06403996    -0.39300
O918        O  0.76944367  0.87597173  0.07974320    -0.39200
O919        O  0.81514032  0.81705409  0.44754331    -0.39900
O920        O  0.81008921  0.77241241  0.47618958    -0.40000
C921        C  0.71302194  0.76209697  0.38233674    -0.12300
C922        C  0.72613617  0.74927252  0.40629216     0.04700
C923        C  0.75618383  0.72270351  0.40697623    -0.07500
C924        C  0.77186451  0.70948096  0.38407880    -0.08300
C925        C  0.75885542  0.72234545  0.36013876    -0.02800
C926        C  0.72910901  0.74925239  0.35941461     0.04000
N927        N  0.71434376  0.76365907  0.33574455     0.66500
H928        H  0.68991137  0.78228057  0.38126083     0.15400
H929        H  0.79512034  0.68946399  0.38520223     0.15100
N930        N  0.77267696  0.71008004  0.43058197     0.74200
O931        O  0.68144881  0.75430573  0.32890222    -0.39300
O932        O  0.72893463  0.79295346  0.32612367    -0.39200
O933        O  0.76002583  0.68053170  0.44108024    -0.39900
O934        O  0.80558080  0.72097981  0.43622662    -0.40000
C935        C  0.50182665  0.77404112  0.18765839    -0.12300
C936        C  0.46366826  0.76320631  0.18567599     0.04700
C937        C  0.45481292  0.72431741  0.18610548    -0.07500
C938        C  0.48402877  0.69738012  0.18561194    -0.08300
C939        C  0.52224318  0.70835143  0.18515464    -0.02800
C940        C  0.53103784  0.74711451  0.18743643     0.04000
N941        N  0.56927500  0.75994879  0.18672875     0.66500
H942        H  0.50919033  0.80382764  0.18759116     0.15400
H943        H  0.47672346  0.66763912  0.18431361     0.15100
N944        N  0.41655400  0.71165945  0.18474158     0.74200
O945        O  0.58605436  0.76245861  0.16542101    -0.39300
O946        O  0.58352374  0.77533371  0.20638096    -0.39200
O947        O  0.40360246  0.69929730  0.16373275    -0.39900
O948        O  0.39859121  0.70573166  0.20526458    -0.40000
C949        C  0.35147966  0.00100890  0.13693781    -0.12300
C950        C  0.38390187  0.00410123  0.15241085     0.04700
C951        C  0.40139865  0.03976674  0.15497140    -0.07500
C952        C  0.38982260  0.06995503  0.13952802    -0.08300
C953        C  0.36066366  0.06565618  0.12148287    -0.02800
C954        C  0.33954649  0.03169361  0.12152861     0.04000
N955        N  0.30851717  0.02650355  0.10427929     0.66500
H956        H  0.33753163  0.97387677  0.13498988     0.15400
H957        H  0.40551918  0.09624591  0.14044647     0.15100
N958        N  0.43287461  0.04499257  0.17190639     0.74200
O959        O  0.31465198  0.01576792  0.08151892    -0.39300
O960        O  0.27534401  0.02533297  0.11307531    -0.39200
O961        O  0.46591857  0.04559963  0.16285371    -0.39900
O962        O  0.42718511  0.05694870  0.19444067    -0.40000
C963        C  0.50575021  0.90487078  0.07119613    -0.12300
C964        C  0.50816331  0.87958820  0.09198573     0.04700
C965        C  0.53037661  0.84656342  0.08932933    -0.07500
C966        C  0.54901883  0.83913706  0.06625683    -0.08300
C967        C  0.54628874  0.86382022  0.04505580    -0.02800
C968        C  0.52410904  0.89712695  0.04775672     0.04000
N969        N  0.51914604  0.92302512  0.02691549     0.66500
H970        H  0.48842203  0.93013464  0.07281760     0.15400
H971        H  0.56582136  0.81346298  0.06513110     0.15100
N972        N  0.53545420  0.82070569  0.11022735     0.74200
O973        O  0.49258535  0.91778624  0.01108112    -0.39300
O974        O  0.53543352  0.95474816  0.02760648    -0.39200
O975        O  0.51894329  0.78908377  0.10971634    -0.39900
O976        O  0.56242812  0.82573375  0.12576081    -0.40000
C977        C  0.32370521  0.74816420  0.07315555    -0.12300
C978        C  0.35047150  0.74910970  0.05329691     0.04700
C979        C  0.38393124  0.76999100  0.05671301    -0.07500
C980        C  0.39029340  0.78898209  0.07972588    -0.08300
C981        C  0.36399357  0.78783912  0.09996754    -0.02800
C982        C  0.33028232  0.76700866  0.09649862     0.04000
N983        N  0.30253071  0.76449752  0.11631460     0.66500
H984        H  0.29797382  0.73195616  0.07079627     0.15400
H985        H  0.41644240  0.80464047  0.08161771     0.15100
N986        N  0.41130663  0.77333920  0.03666229     0.74200
O987        O  0.27360127  0.78545845  0.11535075    -0.39300
O988        O  0.30303895  0.73653999  0.13142123    -0.39200
O989        O  0.41008340  0.80166867  0.02189826    -0.39900
O990        O  0.44079162  0.75313518  0.03735701    -0.40000
C991        C  0.32602456  0.84237338  0.26338014    -0.12300
C992        C  0.32025438  0.86979910  0.24424447     0.04700
C993        C  0.28476012  0.88823495  0.24292404    -0.07500
C994        C  0.25482523  0.87609728  0.25881204    -0.08300
C995        C  0.25983479  0.84570804  0.27596553    -0.02800
C996        C  0.29640597  0.83014734  0.27901319     0.04000
N997        N  0.30323389  0.79956928  0.29648124     0.66500
H998        H  0.35311301  0.82806084  0.26484421     0.15400
H999        H  0.22688728  0.88812352  0.25605873     0.15100
N1000       N  0.27740238  0.91610241  0.22365129     0.74200
O1001       O  0.30275410  0.76591924  0.28826146    -0.39300
O1002       O  0.31775809  0.80642370  0.31816289    -0.39200
O1003       O  0.25987855  0.90688136  0.20344526    -0.39900
O1004       O  0.28183621  0.95069520  0.22892795    -0.40000
C1005       C  0.53515854  0.24399742  0.33359312    -0.12300
C1006       C  0.52413922  0.20599164  0.33492205     0.04700
C1007       C  0.48525023  0.19713555  0.33377297    -0.07500
C1008       C  0.45820377  0.22617493  0.33459214    -0.08300
C1009       C  0.46928492  0.26420270  0.33608371    -0.02800
C1010       C  0.50811036  0.27307328  0.33397069     0.04000
N1011       N  0.52050992  0.31147047  0.33226392     0.66500
H1012       H  0.56488414  0.25127900  0.33381025     0.15400
H1013       H  0.42852500  0.21879972  0.33534521     0.15100
N1014       N  0.47286011  0.15876451  0.33166459     0.74200
O1015       O  0.53204346  0.32831196  0.35215575    -0.39300
O1016       O  0.52712970  0.32560376  0.31047370    -0.39200
O1017       O  0.46037623  0.14186527  0.35120175    -0.39900
O1018       O  0.46714291  0.14477079  0.30967284    -0.40000
C1019       C  0.48399219  0.06284184  0.44819245    -0.12300
C1020       C  0.48138983  0.08855890  0.42771224     0.04700
C1021       C  0.45741951  0.12032609  0.42989100    -0.07500
C1022       C  0.43791181  0.12669956  0.45260613    -0.08300
C1023       C  0.44123099  0.10195345  0.47367527    -0.02800
C1024       C  0.46423750  0.06926614  0.47115691     0.04000
N1025       N  0.47308426  0.04815032  0.99810253     0.66500
H1026       H  0.50215744  0.03816273  0.44661133     0.15400
H1027       H  0.42008885  0.15169596  0.45355975     0.15100
N1028       N  0.45075709  0.14542467  0.40876224     0.74200
O1029       O  0.45698308  0.01670630  0.00142350    -0.39300
O1030       O  0.50216173  0.05604303  0.01111294    -0.39200
O1031       O  0.41887648  0.14500770  0.39783497    -0.39900
O1032       O  0.47175943  0.17388209  0.40584195    -0.40000
C1033       C  0.58649699  0.93297957  0.36595975    -0.12300
C1034       C  0.60392309  0.96807063  0.37013965     0.04700
C1035       C  0.63396718  0.97029069  0.38795350    -0.07500
C1036       C  0.64367987  0.93830615  0.40280425    -0.08300
C1037       C  0.62335410  0.90431627  0.40040530    -0.02800
C1038       C  0.59564656  0.90140313  0.38091602     0.04000
N1039       N  0.57486075  0.86719462  0.37704554     0.66500
H1040       H  0.56352213  0.93076100  0.35219844     0.15400
H1041       H  0.66476944  0.94113315  0.41782410     0.15100
N1042       N  0.65176836  0.00566844  0.39332601     0.74200
O1043       O  0.54230232  0.86410732  0.38665448    -0.39300
O1044       O  0.58471571  0.84486979  0.35931055    -0.39200
O1045       O  0.64100985  0.02509572  0.41234459    -0.39900
O1046       O  0.68238109  0.01379983  0.38228935    -0.40000
C1047       C  0.48463690  0.97684510  0.28461552    -0.12300
C1048       C  0.51156811  0.00558772  0.28118871     0.04700
C1049       C  0.52207147  0.01593518  0.25606188    -0.07500
C1050       C  0.50544845  0.99764266  0.23507751    -0.08300
C1051       C  0.47854742  0.96876351  0.23853662    -0.02800
C1052       C  0.46824138  0.95839333  0.26371546     0.04000
N1053       N  0.44256331  0.92808412  0.26856963     0.66500
H1054       H  0.47653392  0.96803900  0.30378118     0.15400
H1055       H  0.51360407  0.00636440  0.21590893     0.15100
N1056       N  0.54857538  0.04560610  0.25141802     0.74200
O1057       O  0.45510089  0.89468211  0.27042666    -0.39300
O1058       O  0.40952142  0.93547068  0.27619311    -0.39200
O1059       O  0.58178954  0.03736018  0.24457214    -0.39900
O1060       O  0.53691509  0.07926394  0.24911993    -0.40000
C1061       C  0.60941904  0.20802575  0.46317432    -0.12300
C1062       C  0.64436433  0.22629724  0.46518245     0.04700
C1063       C  0.66996071  0.22402621  0.44448620    -0.07500
C1064       C  0.65986047  0.20376153  0.42223014    -0.08300
C1065       C  0.62452601  0.18574152  0.42030899    -0.02800
C1066       C  0.59915596  0.18836220  0.44117678     0.04000
N1067       N  0.56179174  0.17322826  0.43997677     0.66500
H1068       H  0.58922393  0.20941408  0.47880256     0.15400
H1069       H  0.67967138  0.20223531  0.40641075     0.15100
N1070       N  0.70531163  0.24339822  0.44521076     0.74200
O1071       O  0.55511575  0.14169312  0.45040521    -0.39300
O1072       O  0.53462354  0.19527808  0.43498011    -0.39200
O1073       O  0.73539282  0.22474703  0.44862455    -0.39900
O1074       O  0.70715309  0.27702303  0.43710188    -0.40000
C1075       C  0.66065883  0.12443829  0.25625362    -0.12300
C1076       C  0.66843988  0.09839920  0.27592384     0.04700
C1077       C  0.70415888  0.08043777  0.27653386    -0.07500
C1078       C  0.73280496  0.09259916  0.25970289    -0.08300
C1079       C  0.72616108  0.12257913  0.24249961    -0.02800
C1080       C  0.68907585  0.13677316  0.23974024     0.04000
N1081       N  0.68077457  0.16674899  0.22211407     0.66500
H1082       H  0.63317477  0.13806899  0.25527213     0.15400
H1083       H  0.76121021  0.08153266  0.26207920     0.15100
N1084       N  0.71323596  0.05344702  0.29605738     0.74200
O1085       O  0.66755185  0.15884282  0.20021405    -0.39300
O1086       O  0.67847926  0.20032730  0.23032578    -0.39200
O1087       O  0.71627776  0.01889147  0.29016375    -0.39900
O1088       O  0.72561832  0.06476518  0.31749170    -0.40000
O1089       O  0.62248475  0.12853586  0.80850029    -0.80900
O1090       O  0.51247120  0.10768590  0.89701759    -0.65600
O1091       O  0.60025861  0.10105398  0.85593695    -1.12200
C1092       C  0.52243307  0.01800410  0.80722209     1.06000
O1093       O  0.50526809  0.04560821  0.89858062    -0.78800
O1094       O  0.54691509  0.99833637  0.86830421    -0.66400
Ni1095     Ni  0.62326509  0.14623805  0.84351662     1.34900
C1096       C  0.58188646  0.99846206  0.86289662     0.84700
O1097       O  0.58102609  0.13763604  0.90099783    -0.79300
O1098       O  0.62621481  0.16662066  0.87789849    -0.89600
C1099       C  0.49849548  0.07861911  0.90736144     0.84300
O1100       O  0.57928770  0.17636845  0.83627067    -0.67800
O1101       O  0.50196781  0.01544282  0.82733944    -0.87100
C1102       C  0.54572264  0.17452269  0.84463829     0.85100
C1103       C  0.60802748  0.16120993  0.89879100     1.06700
H1104       H  0.51661245  0.08928659  0.84124906     0.38500
O1105       O  0.53394723  0.07426479  0.85142149    -1.09700
O1106       O  0.59777836  0.02452926  0.84994242    -0.66400
Ni1107     Ni  0.57834013  0.06789468  0.83116357     1.26300
O1108       O  0.53488170  0.14883375  0.85984554    -0.66600
O1109       O  0.55394135  0.03555222  0.80657925    -0.78900
C1110       C  0.63547690  0.09672876  0.80106798     0.84500
O1111       O  0.62376223  0.06612022  0.81106028    -0.66100
Ni1112     Ni  0.50552209  0.03175913  0.86240204     1.27400
Ni1113     Ni  0.55658648  0.10571300  0.87664060     1.26100
H1114       H  0.61923330  0.08746116  0.86567925     0.39100
O1115       O  0.47790437  0.92210582  0.62363404    -0.80900
O1116       O  0.35931803  0.90159030  0.71181451    -0.65600
O1117       O  0.44838392  0.89230151  0.67046967    -1.12200
C1118       C  0.37197355  0.80703490  0.62367517     1.06000
O1119       O  0.36079393  0.83910256  0.71459354    -0.78800
O1120       O  0.40538039  0.79177142  0.68664028    -0.66400
Ni1121     Ni  0.47821656  0.93428328  0.66004924     1.34900
C1122       C  0.43763295  0.79303074  0.67603784     0.84700
O1123       O  0.42951617  0.93187678  0.71563140    -0.79300
O1124       O  0.48251009  0.94960390  0.69517888    -0.89600
C1125       C  0.34741535  0.87096133  0.72180089     0.84300
O1126       O  0.43773818  0.96884477  0.65488312    -0.67800
O1127       O  0.35668974  0.79930804  0.64532003    -0.87100
C1128       C  0.40266302  0.96926282  0.65991135     0.85100
C1129       C  0.46147570  0.94857373  0.71504169     1.06700
H1130       H  0.36171102  0.87988558  0.65789927     0.38500
O1131       O  0.38148794  0.86638681  0.66694022    -1.09700
O1132       O  0.44617574  0.81815726  0.65975941    -0.66400
Ni1133     Ni  0.42376342  0.86252462  0.64501626     1.26300
O1134       O  0.38587272  0.94310889  0.67235792    -0.66600
O1135       O  0.39713002  0.83247792  0.62088160    -0.78900
C1136       C  0.48268757  0.88934658  0.61396056     0.84500
O1137       O  0.46647298  0.86066949  0.62323914    -0.66100
Ni1138     Ni  0.36006586  0.82048063  0.67967840     1.27400
Ni1139     Ni  0.40450541  0.89942715  0.69132492     1.26100
H1140       H  0.46533641  0.87624787  0.68020645     0.39100
O1141       O  0.59775575  0.86074184  0.93033112    -0.80900
O1142       O  0.61923446  0.75944064  0.52066293    -0.65600
O1143       O  0.62701463  0.84287299  0.97788389    -1.12200
C1144       C  0.71612523  0.76581142  0.93334823     1.06000
O1145       O  0.68104188  0.75042015  0.52147813    -0.78800
O1146       O  0.72954644  0.79561046  0.99491071    -0.66400
Ni1147     Ni  0.58156290  0.86585278  0.96556980     1.34900
C1148       C  0.72832847  0.82961498  0.98706396     0.84700
O1149       O  0.58990053  0.82871560  0.52308097    -0.79300
O1150       O  0.56126443  0.87460362  0.50014277    -0.89600
C1151       C  0.64824546  0.74456633  0.53060930     0.84300
O1152       O  0.55023486  0.82215886  0.96094987    -0.67800
O1153       O  0.72013815  0.74762763  0.95436796    -0.87100
C1154       C  0.55394305  0.78809111  0.96825882     0.85100
C1155       C  0.56734382  0.85692827  0.52126028     1.06700
H1156       H  0.64286418  0.75789573  0.96595736     0.38500
O1157       O  0.65649396  0.77687908  0.97560165    -1.09700
O1158       O  0.70330081  0.84245257  0.97166592    -0.66400
Ni1159     Ni  0.66081827  0.81986381  0.95381830     1.26300
O1160       O  0.58163392  0.77696142  0.98177405    -0.66600
O1161       O  0.69453645  0.79472098  0.93076322    -0.78900
C1162       C  0.62878710  0.87364011  0.92174687     0.84500
O1163       O  0.66009657  0.86339409  0.93169623    -0.66100
Ni1164     Ni  0.70023854  0.75162221  0.98855762     1.27400
Ni1165     Ni  0.62301589  0.80014311  0.99937001     1.26100
H1166       H  0.64041171  0.86219925  0.98735775     0.39100
O1167       O  0.80466754  0.71782349  0.74954054    -0.80900
O1168       O  0.83055337  0.60443396  0.83886615    -0.65600
O1169       O  0.83860620  0.69118590  0.79533340    -1.12200
C1170       C  0.92127879  0.61173345  0.74884884     1.06000
O1171       O  0.89300180  0.60500938  0.84070495    -0.78800
O1172       O  0.93726153  0.64864889  0.81155435    -0.66400
Ni1173     Ni  0.79680696  0.72195776  0.78596924     1.34900
C1174       C  0.93587716  0.68031789  0.80014605     0.84700
O1175       O  0.80073259  0.67508692  0.84144544    -0.79300
O1176       O  0.78585354  0.72954131  0.82133857    -0.89600
C1177       C  0.86139801  0.59289017  0.84886116     0.84300
O1178       O  0.76060358  0.68256851  0.78376458    -0.67800
O1179       O  0.93024856  0.59824554  0.77091105    -0.87100
C1180       C  0.76056191  0.64712642  0.78783961     0.85100
C1181       C  0.78606533  0.70822534  0.84102909     1.06700
H1182       H  0.85015297  0.60354554  0.78476200     0.38500
O1183       O  0.86395821  0.62381833  0.79295956    -1.09700
O1184       O  0.91167395  0.68782842  0.78288718    -0.66400
Ni1185     Ni  0.86657973  0.66484037  0.76969345     1.26300
O1186       O  0.78776009  0.62964660  0.79898369    -0.66600
O1187       O  0.89533645  0.63651450  0.74565566    -0.78900
C1188       C  0.83588169  0.72117190  0.73791021     0.84500
O1189       O  0.86599114  0.70605195  0.74622215    -0.66100
Ni1190     Ni  0.91012019  0.60276446  0.80550867     1.27400
Ni1191     Ni  0.83205896  0.64849010  0.81724307     1.26100
H1192       H  0.85543452  0.70804674  0.80440551     0.39100
O1193       O  0.01296211  0.04890772  0.87168619    -0.80900
O1194       O  0.12461435  0.07040903  0.96466095    -0.65600
O1195       O  0.03962519  0.07803970  0.91958316    -1.12200
C1196       C  0.12242523  0.15934724  0.87413666     1.06000
O1197       O  0.12523064  0.13301112  0.96604592    -0.78800
O1198       O  0.08668899  0.18083112  0.93426996    -0.66400
Ni1199     Ni  0.01201537  0.03504293  0.90776815     1.34900
C1200       C  0.05387695  0.17875357  0.92445479     0.84700
O1201       O  0.05461815  0.04088474  0.96598494    -0.79300
O1202       O  0.00658767  0.01758888  0.94249681    -0.89600
C1203       C  0.13662778  0.10104529  0.97447881     0.84300
O1204       O  0.05460313  0.00318797  0.90240881    -0.67800
O1205       O  0.13825455  0.16651229  0.89575806    -0.87100
C1206       C  0.08866789  0.00307176  0.91010041     0.85100
C1207       C  0.02444858  0.02147405  0.96364719     1.06700
H1208       H  0.12675311  0.08888259  0.90988556     0.38500
O1209       O  0.10713563  0.10341735  0.91826481    -1.09700
O1210       O  0.04391351  0.15206885  0.90971682    -0.66400
Ni1211     Ni  0.06624176  0.10762677  0.89514130     1.26300
O1212       O  0.10254313  0.02784767  0.92519697    -0.66600
O1213       O  0.09443065  0.13704357  0.87162308    -0.78900
C1214       C  0.00904544  0.08190644  0.86222194     0.84500
O1215       O  0.02498621  0.11012948  0.87230615    -0.66100
Ni1216     Ni  0.13040559  0.14873771  0.93059761     1.27400
Ni1217     Ni  0.08169551  0.07198977  0.94230366     1.26100
H1218       H  0.02142531  0.09386546  0.92836666     0.39100
O1219       O  0.86112803  0.83595423  0.55474916    -0.80900
O1220       O  0.95534604  0.86161260  0.65370375    -0.65600
O1221       O  0.87790071  0.86298624  0.60347821    -1.12200
C1222       C  0.96255108  0.94322968  0.55797484     1.06000
O1223       O  0.97245723  0.92175428  0.65006871    -0.78800
O1224       O  0.93414985  0.96631679  0.61691890    -0.66400
Ni1225     Ni  0.86088197  0.81620936  0.58946401     1.34900
C1226       C  0.89887070  0.96494963  0.61239971     0.84700
O1227       O  0.88616602  0.83316711  0.65118062    -0.79300
O1228       O  0.85751911  0.79351230  0.62339077    -0.89600
C1229       C  0.97256041  0.89042812  0.66207474     0.84300
O1230       O  0.90949460  0.79349641  0.58355140    -0.67800
O1231       O  0.98255727  0.94436772  0.57829225    -0.87100
C1232       C  0.93806006  0.79292684  0.59837841     0.85100
C1233       C  0.86583052  0.80432412  0.64622955     1.06700
H1234       H  0.96239328  0.87170171  0.59500986     0.38500
O1235       O  0.94511377  0.88882762  0.60349930    -1.09700
O1236       O  0.88305559  0.93864355  0.59947869    -0.66400
Ni1237     Ni  0.90319214  0.89581971  0.58052232     1.26300
O1238       O  0.94105894  0.81525755  0.61734882    -0.66600
O1239       O  0.92987674  0.92810576  0.55716961    -0.78900
C1240       C  0.84811166  0.86807940  0.54769731     0.84500
O1241       O  0.85967149  0.89840055  0.55834065    -0.66100
Ni1242     Ni  0.97499570  0.93129877  0.61356702     1.27400
Ni1243     Ni  0.91669535  0.86121279  0.62839590     1.26100
H1244       H  0.85625027  0.87578717  0.61078506     0.39100
O1245       O  0.17812307  0.75540209  0.74762376    -0.80900
O1246       O  0.16035477  0.86942928  0.83810863    -0.65600
O1247       O  0.14909586  0.78243141  0.79521593    -1.12200
C1248       C  0.05935233  0.85872429  0.75291021     1.06000
O1249       O  0.09827464  0.86860275  0.84286794    -0.78800
O1250       O  0.05213896  0.82279829  0.81647414    -0.66400
Ni1251     Ni  0.19056569  0.75239232  0.78397176     1.34900
C1252       C  0.05205253  0.79181163  0.80424304     0.84700
O1253       O  0.19065903  0.79938258  0.83975005    -0.79300
O1254       O  0.20556894  0.74552729  0.81908612    -0.89600
C1255       C  0.13068105  0.88056446  0.84962143     0.84300
O1256       O  0.22600236  0.79242513  0.78013475    -0.67800
O1257       O  0.05225426  0.87159640  0.77539577    -0.87100
C1258       C  0.22591631  0.82773571  0.78487004     0.85100
C1259       C  0.20583472  0.76656694  0.83906356     1.06700
H1260       H  0.13494159  0.87002263  0.78509360     0.38500
O1261       O  0.12242826  0.84946929  0.79385094    -1.09700
O1262       O  0.07460372  0.78472497  0.78596859    -0.66400
Ni1263     Ni  0.11810868  0.80819929  0.77087029     1.26300
O1264       O  0.19938488  0.84463290  0.79698735    -0.66600
O1265       O  0.08635040  0.83587905  0.74784874    -0.78900
C1266       C  0.14530474  0.75114578  0.73797628     0.84500
O1267       O  0.11664538  0.76665773  0.74803611    -0.66100
Ni1268     Ni  0.07708542  0.86916040  0.80865538     1.27400
Ni1269     Ni  0.15703158  0.82533509  0.81674010     1.26100
H1270       H  0.13350350  0.76527731  0.80496654     0.39100
O1271       O  0.39074374  0.60250416  0.92999801    -0.80900
O1272       O  0.36802970  0.70670836  0.52117481    -0.65600
O1273       O  0.36263525  0.62469302  0.97727003    -1.12200
C1274       C  0.27961160  0.70469692  0.92980542     1.06000
O1275       O  0.30640529  0.71655334  0.52265276    -0.78800
O1276       O  0.26386352  0.67984946  0.99289699    -0.66400
Ni1277     Ni  0.40706010  0.59923104  0.96538355     1.34900
C1278       C  0.26333276  0.64519350  0.98652261     0.84700
O1279       O  0.39698188  0.63780295  0.52377846    -0.79300
O1280       O  0.42607709  0.59229709  0.50089424    -0.89600
C1281       C  0.33953648  0.72181902  0.53146261     0.84300
O1282       O  0.43986921  0.64155044  0.95952523    -0.67800
O1283       O  0.27647483  0.72395678  0.95046846    -0.87100
C1284       C  0.43817742  0.67550697  0.96741874     0.85100
C1285       C  0.42012272  0.61017036  0.52195114     1.06700
H1286       H  0.35303929  0.70980456  0.96370972     0.38500
O1287       O  0.33768470  0.69245098  0.97349093    -1.09700
O1288       O  0.28695528  0.62995610  0.97113856    -0.66400
Ni1289     Ni  0.33063187  0.64863085  0.95258233     1.26300
O1290       O  0.41186589  0.68758861  0.98169185    -0.66600
O1291       O  0.29914741  0.67436372  0.92820035    -0.78900
C1292       C  0.35866506  0.59188662  0.92159491     0.84500
O1293       O  0.32829910  0.60406312  0.93169077    -0.66100
Ni1294     Ni  0.29545976  0.72146527  0.98498234     1.27400
Ni1295     Ni  0.36833889  0.66772614  0.99838023     1.26100
H1296       H  0.34821516  0.60622265  0.98676349     0.39100
O1297       O  0.09716694  0.35799952  0.68085125    -0.80900
O1298       O  0.12328345  0.24939870  0.76984008    -0.65600
O1299       O  0.12651318  0.33712383  0.72818095    -1.12200
C1300       C  0.21179653  0.26060910  0.68007175     1.06000
O1301       O  0.18560867  0.24589362  0.77106050    -0.78800
O1302       O  0.23091920  0.28665658  0.74016674    -0.66400
Ni1303     Ni  0.08109970  0.36021217  0.71632171     1.34900
C1304       C  0.22950265  0.32175204  0.73500287     0.84700
O1305       O  0.09147456  0.31789121  0.77362226    -0.79300
O1306       O  0.06319442  0.36465151  0.75124681    -0.89600
C1307       C  0.15344656  0.23742022  0.78008796     0.84300
O1308       O  0.04970779  0.31648620  0.71112195    -0.67800
O1309       O  0.21465417  0.24005342  0.70013627    -0.87100
C1310       C  0.05215545  0.28273751  0.71942266     0.85100
C1311       C  0.06906084  0.34618464  0.77209599     1.06700
H1312       H  0.14045307  0.25343086  0.71397232     0.38500
O1313       O  0.15506204  0.27132432  0.72391264    -1.09700
O1314       O  0.20271923  0.33696841  0.72212726    -0.66400
Ni1315     Ni  0.15995430  0.31570546  0.70342224     1.26300
O1316       O  0.07991189  0.27119502  0.73281704    -0.66600
O1317       O  0.19316019  0.29173563  0.67915998    -0.78900
C1318       C  0.12834371  0.37143917  0.67275661     0.84500
O1319       O  0.15949664  0.36075351  0.68273154    -0.66100
Ni1320     Ni  0.19869472  0.24445240  0.73505651     1.27400
Ni1321     Ni  0.12324722  0.29352425  0.74910884     1.26100
H1322       H  0.13987781  0.35625256  0.73786337     0.39100
O1323       O  0.30612716  0.21693987  0.49572531    -0.80900
O1324       O  0.32607475  0.09907613  0.58496060    -0.65600
O1325       O  0.33329924  0.18831504  0.54373310    -1.12200
C1326       C  0.41807573  0.11281172  0.00113384     1.06000
O1327       O  0.38835090  0.10206177  0.58757153    -0.78800
O1328       O  0.43796794  0.14191766  0.55838310    -0.66400
Ni1329     Ni  0.29093067  0.21651939  0.53161112     1.34900
C1330       C  0.43553358  0.17583090  0.55041899     0.84700
O1331       O  0.29377771  0.16885548  0.58790218    -0.79300
O1332       O  0.27289017  0.22016198  0.56621362    -0.89600
C1333       C  0.35704068  0.08839951  0.59520735     0.84300
O1334       O  0.25879348  0.17461942  0.52513372    -0.67800
O1335       O  0.42555147  0.09316714  0.51814749    -0.87100
C1336       C  0.25870718  0.13979621  0.53122399     0.85100
C1337       C  0.27531785  0.20001986  0.58651348     1.06700
H1338       H  0.34756056  0.10274774  0.53027658     0.38500
O1339       O  0.36088846  0.12175605  0.54009586    -1.09700
O1340       O  0.40827321  0.18717510  0.53654233    -0.66400
Ni1341     Ni  0.36555773  0.16511285  0.51941123     1.26300
O1342       O  0.28416898  0.12412202  0.54507512    -0.66600
O1343       O  0.39510500  0.14059527  0.99899955    -0.78900
C1344       C  0.33656566  0.22429930  0.98998766     0.84500
O1345       O  0.36771249  0.20869504  0.49888767    -0.66100
Ni1346     Ni  0.40602922  0.09855428  0.55267571     1.27400
Ni1347     Ni  0.32702914  0.14409346  0.56421424     1.26100
H1348       H  0.34785078  0.20592544  0.55393737     0.39100
O1349       O  0.51211005  0.54802974  0.62395814    -0.80900
O1350       O  0.62948659  0.56902296  0.71378371    -0.65600
O1351       O  0.54086187  0.57685707  0.67138281    -1.12200
C1352       C  0.61829510  0.66078252  0.62375009     1.06000
O1353       O  0.62782889  0.63161556  0.71485897    -0.78800
O1354       O  0.58710284  0.68021425  0.68505519    -0.66400
Ni1355     Ni  0.51196157  0.53470243  0.66016583     1.34900
C1356       C  0.55376172  0.67810656  0.67607716     0.84700
O1357       O  0.55910549  0.53801434  0.71701034    -0.79300
O1358       O  0.50781333  0.51827297  0.69503828    -0.89600
C1359       C  0.64084154  0.60024609  0.72333017     0.84300
O1360       O  0.55327578  0.50134797  0.65471559    -0.67800
O1361       O  0.63591608  0.66716676  0.64483435    -0.87100
C1362       C  0.58798293  0.50048032  0.66096393     0.85100
C1363       C  0.52769410  0.52020454  0.71548981     1.06700
H1364       H  0.62680122  0.58858849  0.65859142     0.38500
O1365       O  0.60766306  0.60268327  0.66778955    -1.09700
O1366       O  0.54325357  0.65118883  0.66172575    -0.66400
Ni1367     Ni  0.56493308  0.60718315  0.64617442     1.26300
O1368       O  0.60406232  0.52604487  0.67444951    -0.66600
O1369       O  0.59083032  0.63763648  0.62193887    -0.78900
C1370       C  0.50638581  0.58097240  0.61483099     0.84500
O1371       O  0.52164029  0.60967488  0.62483805    -0.66100
Ni1372     Ni  0.63077000  0.64828817  0.67964344     1.27400
Ni1373     Ni  0.58461776  0.57019857  0.69261076     1.26100
H1374       H  0.52349619  0.59250261  0.68104612     0.39100
O1375       O  0.36060543  0.33744484  0.80730006    -0.80900
O1376       O  0.46836838  0.36377085  0.89730446    -0.65600
O1377       O  0.38258704  0.36844783  0.85404179    -1.12200
C1378       C  0.46243169  0.44948590  0.80544069     1.06000
O1379       O  0.47760545  0.42547849  0.89768338    -0.78800
O1380       O  0.43538154  0.47035911  0.86641315    -0.66400
Ni1381     Ni  0.35972388  0.32230826  0.84291416     1.34900
C1382       C  0.40076268  0.46997524  0.85998606     0.84700
O1383       O  0.39985689  0.33544493  0.90083656    -0.79300
O1384       O  0.35644606  0.30371088  0.87793728    -0.89600
C1385       C  0.48311020  0.39274554  0.90723078     0.84300
O1386       O  0.40414237  0.29264008  0.83659391    -0.67800
O1387       O  0.48158159  0.45327258  0.82609931    -0.87100
C1388       C  0.43742578  0.29494863  0.84550333     0.85100
C1389       C  0.37356663  0.31112999  0.89905977     1.06700
H1390       H  0.46711907  0.37909335  0.84114765     0.38500
O1391       O  0.44934925  0.39475194  0.85043263    -1.09700
O1392       O  0.38574024  0.44424591  0.84613525    -0.66400
Ni1393     Ni  0.40585772  0.39988219  0.82879645     1.26300
O1394       O  0.44750768  0.32086648  0.86083587    -0.66600
O1395       O  0.43147366  0.43098879  0.80400722    -0.78900
C1396       C  0.34961742  0.36893741  0.79796075     0.84500
O1397       O  0.36140290  0.40014639  0.80726510    -0.66100
Ni1398     Ni  0.47746761  0.43782876  0.86123339     1.27400
Ni1399     Ni  0.42532240  0.36512106  0.87593734     1.26100
H1400       H  0.36330241  0.38278383  0.86291762     0.39100
O1401       O  0.88400268  0.10032745  0.68124743    -0.80900
O1402       O  0.86355346  0.20297823  0.77325423    -0.65600
O1403       O  0.85678286  0.11909954  0.72905404    -1.12200
C1404       C  0.77493422  0.20285402  0.68332761     1.06000
O1405       O  0.80199116  0.21272298  0.77476169    -0.78800
O1406       O  0.75414637  0.17550897  0.74239489    -0.66400
Ni1407     Ni  0.90184835  0.09607529  0.71619480     1.34900
C1408       C  0.75410812  0.14055775  0.73660854     0.84700
O1409       O  0.89254804  0.13398910  0.77476824    -0.79300
O1410       O  0.92233858  0.09014137  0.75060645    -0.89600
C1411       C  0.83503101  0.21797805  0.78371661     0.84300
O1412       O  0.93283704  0.13988396  0.71082743    -0.67800
O1413       O  0.77363996  0.22292166  0.70368485    -0.87100
C1414       C  0.93162131  0.17276659  0.72064576     0.85100
C1415       C  0.91672319  0.10747802  0.77190311     1.06700
H1416       H  0.84644013  0.20399483  0.71740757     0.38500
O1417       O  0.83084996  0.18651017  0.72690102    -1.09700
O1418       O  0.78030748  0.12436512  0.72376599    -0.66400
Ni1419     Ni  0.82374827  0.14373756  0.70523015     1.26300
O1420       O  0.90550211  0.18306562  0.73580701    -0.66600
O1421       O  0.79134353  0.17055944  0.68193251    -0.78900
C1422       C  0.85228159  0.08777247  0.67353210     0.84500
O1423       O  0.82163741  0.09972591  0.68350294    -0.66100
Ni1424     Ni  0.78904596  0.21592784  0.73856512     1.27400
Ni1425     Ni  0.86152166  0.16090730  0.75128276     1.26100
H1426       H  0.84297226  0.09960688  0.73801628     0.39100
O1427       O  0.68376884  0.25367579  0.49807517    -0.80900
O1428       O  0.66058479  0.36491894  0.59027858    -0.65600
O1429       O  0.65403900  0.27864105  0.54619603    -1.12200
C1430       C  0.56648972  0.36212261  0.00086378     1.06000
O1431       O  0.59820066  0.36255342  0.59218112    -0.78800
O1432       O  0.55037250  0.32227950  0.56194192    -0.66400
Ni1433     Ni  0.69656873  0.25040529  0.53444590     1.34900
C1434       C  0.55274224  0.28944522  0.55209737     0.84700
O1435       O  0.69284743  0.29511380  0.59138829    -0.79300
O1436       O  0.71210306  0.24349483  0.56942643    -0.89600
C1437       C  0.62956773  0.37544332  0.60046929     0.84300
O1438       O  0.73042199  0.29169698  0.53098099    -0.67800
O1439       O  0.56038715  0.37339542  0.52251795    -0.87100
C1440       C  0.72989475  0.32649132  0.53716138     0.85100
C1441       C  0.71025810  0.26338141  0.58988107     1.06700
H1442       H  0.63970913  0.36531102  0.53560584     0.38500
O1443       O  0.62633827  0.34535974  0.54440958    -1.09700
O1444       O  0.57942752  0.28004167  0.53715428    -0.66400
Ni1445     Ni  0.62275928  0.30376206  0.52194989     1.26300
O1446       O  0.70319896  0.34201161  0.54996807    -0.66600
O1447       O  0.58918177  0.33416152  0.99857385    -0.78900
C1448       C  0.64748433  0.25086541  0.98803640     0.84500
O1449       O  0.62194783  0.26212631  0.49962750    -0.66100
Ni1450     Ni  0.58051128  0.36697205  0.55713447     1.27400
Ni1451     Ni  0.65991182  0.32130357  0.56815869     1.26100
H1452       H  0.63888943  0.26063463  0.55557046     0.39100
O1453       O  0.12653141  0.62852275  0.55705805    -0.80900
O1454       O  0.01877079  0.60486641  0.64691065    -0.65600
O1455       O  0.10535640  0.59984962  0.60471775    -1.12200
C1456       C  0.02670265  0.51698955  0.55637259     1.06000
O1457       O  0.01171202  0.54281221  0.64801997    -0.78800
O1458       O  0.05264359  0.49668501  0.61711957    -0.66400
Ni1459     Ni  0.12751048  0.64567556  0.59246845     1.34900
C1460       C  0.08753403  0.49678999  0.61160852     0.84700
O1461       O  0.08690871  0.63507713  0.65038201    -0.79300
O1462       O  0.13078106  0.66572880  0.62712381    -0.89600
C1463       C  0.00482949  0.57562367  0.65696270     0.84300
O1464       O  0.08299806  0.67574075  0.58634963    -0.67800
O1465       O  0.00691200  0.51406346  0.57675220    -0.87100
C1466       C  0.04996758  0.67372954  0.59568627     0.85100
C1467       C  0.11285714  0.65974086  0.64809292     1.06700
H1468       H  0.02156489  0.58771770  0.59095343     0.38500
O1469       O  0.03915606  0.57253709  0.60081142    -1.09700
O1470       O  0.10330715  0.52293653  0.59852144    -0.66400
Ni1471     Ni  0.08307647  0.56669392  0.58003010     1.26300
O1472       O  0.03955138  0.64713103  0.61027360    -0.66600
O1473       O  0.05823885  0.53449808  0.55545921    -0.78900
C1474       C  0.13910169  0.59667078  0.54918285     0.84500
O1475       O  0.12784262  0.56590726  0.55928492    -0.66100
Ni1476     Ni  0.01110846  0.52979332  0.61179663     1.27400
Ni1477     Ni  0.06223245  0.60358976  0.62601531     1.26100
H1478       H  0.12474779  0.58631003  0.61410353     0.39100
O1479       O  0.97839498  0.42024411  0.87125655    -0.80900
O1480       O  0.86313168  0.40249419  0.96105404    -0.65600
O1481       O  0.95055154  0.39038513  0.91869345    -1.12200
C1482       C  0.87243134  0.30755996  0.87270689     1.06000
O1483       O  0.85981288  0.33989115  0.96364511    -0.78800
O1484       O  0.90615765  0.29290561  0.93668096    -0.66400
Ni1485     Ni  0.98089140  0.43192214  0.90773370     1.34900
C1486       C  0.93733101  0.29269806  0.92467240     0.84700
O1487       O  0.93471009  0.43016684  0.96412118    -0.79300
O1488       O  0.98745111  0.44663919  0.94285844    -0.89600
C1489       C  0.84869992  0.37271224  0.97060978     0.84300
O1490       O  0.94109346  0.46765663  0.90347759    -0.67800
O1491       O  0.85857304  0.29894903  0.89463671    -0.87100
C1492       C  0.90605453  0.46814051  0.90860798     0.85100
C1493       C  0.96719946  0.44589538  0.96309949     1.06700
H1494       H  0.86273451  0.38070395  0.90751762     0.38500
O1495       O  0.88257241  0.36664305  0.91609996    -1.09700
O1496       O  0.94476910  0.31650623  0.90723922    -0.66400
Ni1497     Ni  0.92390516  0.36221650  0.89345278     1.26300
O1498       O  0.88940229  0.44238617  0.92140266    -0.66600
O1499       O  0.89572888  0.33432530  0.86924600    -0.78900
C1500       C  0.98204160  0.38735042  0.86162688     0.84500
O1501       O  0.96573184  0.35912777  0.87128859    -0.66100
Ni1502     Ni  0.86072019  0.32085301  0.92882735     1.27400
Ni1503     Ni  0.90764287  0.39859770  0.94018079     1.26100
H1504       H  0.96740696  0.37363048  0.92794967     0.39100
C1505       C  0.01407266  0.48118724  0.48774323    -0.12300
C1506       C  0.98322670  0.46383069  0.98656669     0.04700
C1507       C  0.95458188  0.47576316  0.51047047    -0.07500
C1508       C  0.97216976  0.48996484  0.53250153    -0.08300
C1509       C  0.01062933  0.50015395  0.53259059    -0.02800
C1510       C  0.03161032  0.49570129  0.50974503     0.04000
N1511       N  0.07083577  0.50504659  0.50852314     0.66500
H1512       H  0.04034215  0.46433690  0.97150741     0.15400
H1513       H  0.95502675  0.49383663  0.54953852     0.15100
N1514       N  0.92060412  0.46893075  0.00757035     0.74200
O1515       O  0.09530600  0.48015117  0.51384993    -0.39300
O1516       O  0.08089129  0.53516704  0.49747973    -0.39200
O1517       O  0.90354921  0.43942152  0.52389508    -0.39900
O1518       O  0.90066359  0.49324526  0.99596363    -0.40000
C1519       C  0.75270581  0.37774340  0.00183096    -0.12300
C1520       C  0.76205983  0.34906859  0.52768356     0.04700
C1521       C  0.79928189  0.33547440  0.53123978    -0.07500
C1522       C  0.82795424  0.34692181  0.51459214    -0.08300
C1523       C  0.81956230  0.37479349  0.99079993    -0.02800
C1524       C  0.78251727  0.38740971  0.98527673     0.04000
N1525       N  0.77390461  0.40522910  0.96129924     0.66500
H1526       H  0.72391497  0.38414848  0.99608861     0.15400
H1527       H  0.85566017  0.33392917  0.51634181     0.15100
N1528       N  0.80764527  0.30721873  0.55010625     0.74200
O1529       O  0.76656023  0.38504193  0.94189272    -0.39300
O1530       O  0.76622961  0.44015256  0.96081303    -0.39200
O1531       O  0.81327376  0.27349272  0.54298639    -0.39900
O1532       O  0.81827187  0.31737337  0.57223308    -0.40000
C1533       C  0.87828966  0.25739338  0.80892871    -0.12300
C1534       C  0.84197558  0.24197971  0.80645220     0.04700
C1535       C  0.81502331  0.24896489  0.82587649    -0.07500
C1536       C  0.82539893  0.27005815  0.84765181    -0.08300
C1537       C  0.86197995  0.28501546  0.85001311    -0.02800
C1538       C  0.88848947  0.27857530  0.83026956     0.04000
N1539       N  0.92651066  0.29202170  0.83194743     0.66500
H1540       H  0.89942806  0.25279907  0.79418278     0.15400
H1541       H  0.80468910  0.27513948  0.86258798     0.15100
N1542       N  0.77748259  0.23444684  0.82410903     0.74200
O1543       O  0.93590053  0.32106963  0.81939492    -0.39300
O1544       O  0.95190777  0.27053004  0.84088805    -0.39200
O1545       O  0.76860801  0.20561185  0.83704700    -0.39900
O1546       O  0.75172201  0.25494181  0.81459337    -0.40000
C1547       C  0.76943078  0.20415176  0.63593274    -0.12300
C1548       C  0.75757852  0.21844727  0.65975273     0.04700
C1549       C  0.73084085  0.24833171  0.66029692    -0.07500
C1550       C  0.71644812  0.26276268  0.63731497    -0.08300
C1551       C  0.72810575  0.24827704  0.61347482    -0.02800
C1552       C  0.75522529  0.21874720  0.61295312     0.04000
N1553       N  0.76974111  0.20390550  0.58938511     0.66500
H1554       H  0.79053855  0.18186037  0.63498551     0.15400
H1555       H  0.69543158  0.28513375  0.63828524     0.15100
N1556       N  0.71714566  0.26389763  0.68389635     0.74200
O1557       O  0.80099479  0.21588767  0.58116787    -0.39300
O1558       O  0.75704901  0.17294949  0.58090256    -0.39200
O1559       O  0.73094747  0.29449380  0.69217940    -0.39900
O1560       O  0.68595323  0.25263280  0.69267026    -0.40000
C1561       C  0.50351511  0.41299399  0.95135562    -0.12300
C1562       C  0.50605594  0.38740652  0.93069387     0.04700
C1563       C  0.52929340  0.35510991  0.93319901    -0.07500
C1564       C  0.54817343  0.34821462  0.95609862    -0.08300
C1565       C  0.54529355  0.37289258  0.97720820    -0.02800
C1566       C  0.52280615  0.40596468  0.97461865     0.04000
N1567       N  0.51919281  0.43260201  0.99516757     0.66500
H1568       H  0.48578087  0.43797113  0.94968280     0.15400
H1569       H  0.56532044  0.32275003  0.95708772     0.15100
N1570       N  0.53597547  0.32978165  0.91221324     0.74200
O1571       O  0.53866216  0.46247326  0.99489098    -0.39300
O1572       O  0.47691733  0.40110160  0.51129936    -0.39200
O1573       O  0.56834067  0.32923087  0.90208598    -0.39900
O1574       O  0.51467009  0.30153212  0.90922800    -0.40000
C1575       C  0.64964781  0.43679053  0.62028627    -0.12300
C1576       C  0.62846959  0.40320075  0.62183851     0.04700
C1577       C  0.60066129  0.40007020  0.64110166    -0.07500
C1578       C  0.59114967  0.43157829  0.65595017    -0.08300
C1579       C  0.60886591  0.46656550  0.65216715    -0.02800
C1580       C  0.64008945  0.46852204  0.63544702     0.04000
N1581       N  0.65984653  0.50331020  0.63185669     0.66500
H1582       H  0.67138472  0.43954152  0.60577939     0.15400
H1583       H  0.56761766  0.42945951  0.66918697     0.15100
N1584       N  0.57998835  0.36575426  0.64466453     0.74200
O1585       O  0.68817973  0.51062991  0.64575359    -0.39300
O1586       O  0.65311242  0.52336593  0.61229135    -0.39200
O1587       O  0.59152605  0.34189942  0.66097349    -0.39900
O1588       O  0.54669863  0.36327956  0.63606929    -0.40000
C1589       C  0.51787628  0.47109911  0.78028665    -0.12300
C1590       C  0.47838842  0.46701231  0.78201585     0.04700
C1591       C  0.45563483  0.47970763  0.76147625    -0.07500
C1592       C  0.47244837  0.49686510  0.74017466    -0.08300
C1593       C  0.51192194  0.50136376  0.73854834    -0.02800
C1594       C  0.53474904  0.48770639  0.75878184     0.04000
N1595       N  0.57505440  0.48850603  0.75724965     0.66500
H1596       H  0.53600616  0.46055015  0.79553239     0.15400
H1597       H  0.45424120  0.50721576  0.72491278     0.15100
N1598       N  0.41539500  0.47662450  0.76223753     0.74200
O1599       O  0.59331271  0.51167608  0.77091430    -0.39300
O1600       O  0.59228048  0.46125139  0.74673411    -0.39200
O1601       O  0.39596073  0.50389549  0.77076149    -0.39900
O1602       O  0.39930527  0.45035635  0.74996235    -0.40000
C1603       C  0.53245051  0.22197797  0.55684405    -0.12300
C1604       C  0.52279424  0.26069690  0.55705645     0.04700
C1605       C  0.48420921  0.27070314  0.55884816    -0.07500
C1606       C  0.45636806  0.24244640  0.55817619    -0.08300
C1607       C  0.46593298  0.20380189  0.55631689    -0.02800
C1608       C  0.50460679  0.19365852  0.55677314     0.04000
N1609       N  0.51624751  0.15493855  0.55515149     0.66500
H1610       H  0.56189648  0.21357765  0.55573306     0.15400
H1611       H  0.42690427  0.25095792  0.55809417     0.15100
N1612       N  0.47255196  0.30948014  0.55919069     0.74200
O1613       O  0.52247633  0.14036015  0.53340264    -0.39300
O1614       O  0.52789006  0.13826046  0.57512560    -0.39200
O1615       O  0.46375133  0.32564796  0.53838153    -0.39900
O1616       O  0.46391699  0.32486814  0.58028951    -0.40000
C1617       C  0.37765758  0.26706962  0.96567578    -0.12300
C1618       C  0.34320364  0.24781287  0.96694101     0.04700
C1619       C  0.31781547  0.25047514  0.94605166    -0.07500
C1620       C  0.32784802  0.27157001  0.92419355    -0.08300
C1621       C  0.36289091  0.29027484  0.92278315    -0.02800
C1622       C  0.38775549  0.28793989  0.94411056     0.04000
N1623       N  0.42450097  0.30457177  0.94384050     0.66500
H1624       H  0.39751032  0.26554876  0.98157327     0.15400
H1625       H  0.30830515  0.27285221  0.90814128     0.15100
N1626       N  0.28284665  0.23038810  0.94607085     0.74200
O1627       O  0.42922973  0.33674572  0.95392145    -0.39300
O1628       O  0.45283009  0.28351928  0.94007397    -0.39200
O1629       O  0.25231850  0.24835470  0.94923816    -0.39900
O1630       O  0.28187913  0.19684015  0.93770111    -0.40000
C1631       C  0.02918989  0.21660133  0.71277178    -0.12300
C1632       C  0.02082905  0.25548725  0.71464595     0.04700
C1633       C  0.98248841  0.26683742  0.71529968    -0.07500
C1634       C  0.95382254  0.23943823  0.71568048    -0.08300
C1635       C  0.96229192  0.20047889  0.71526189    -0.02800
C1636       C  0.00049280  0.18922437  0.71287951     0.04000
N1637       N  0.01097425  0.15010115  0.71276542     0.66500
H1638       H  0.05838556  0.20723512  0.71223615     0.15400
H1639       H  0.92472574  0.24874703  0.71751064     0.15100
N1640       N  0.97215875  0.30580388  0.71807691     0.74200
O1641       O  0.01573518  0.13329189  0.69159439    -0.39300
O1642       O  0.02269033  0.13483704  0.73323525    -0.39200
O1643       O  0.95700588  0.32303024  0.69944215    -0.39900
O1644       O  0.97116142  0.32042753  0.74021839    -0.40000
C1645       C  0.29797070  0.32875922  0.74115302    -0.12300
C1646       C  0.26183359  0.34433147  0.74461815     0.04700
C1647       C  0.25752022  0.37532541  0.76155023    -0.07500
C1648       C  0.28818889  0.38664292  0.77713516    -0.08300
C1649       C  0.32304137  0.36742971  0.77588795    -0.02800
C1650       C  0.32837968  0.33996808  0.75648627     0.04000
N1651       N  0.36391374  0.32111743  0.75337564     0.66500
H1652       H  0.30197485  0.30548533  0.72779262     0.15400
H1653       H  0.28365071  0.40792463  0.79184527     0.15100
N1654       N  0.22147579  0.39285643  0.76508838     0.74200
O1655       O  0.36868551  0.28858359  0.76292479    -0.39300
O1656       O  0.38659134  0.33279028  0.73649154    -0.39200
O1657       O  0.20025755  0.38182969  0.78302361    -0.39900
O1658       O  0.21418188  0.42361250  0.75373371    -0.40000
C1659       C  0.21448402  0.25740631  0.63249444    -0.12300
C1660       C  0.22964995  0.24640126  0.65629281     0.04700
C1661       C  0.25946739  0.21962202  0.65686083    -0.07500
C1662       C  0.27269675  0.20387613  0.63396949    -0.08300
C1663       C  0.25747479  0.21475772  0.61015828    -0.02800
C1664       C  0.22800569  0.24193842  0.60955581     0.04000
N1665       N  0.21070938  0.25349687  0.58595114     0.66500
H1666       H  0.19122412  0.27743952  0.63163427     0.15400
H1667       H  0.29605152  0.18395576  0.63487109     0.15100
N1668       N  0.27786836  0.20929149  0.68035399     0.74200
O1669       O  0.18293948  0.23510800  0.57728379    -0.39300
O1670       O  0.21767248  0.28594287  0.57700353    -0.39200
O1671       O  0.27267674  0.17673518  0.68967699    -0.39900
O1672       O  0.30488717  0.22919364  0.68856623    -0.40000
C1673       C  0.02441082  0.39000147  0.79476648    -0.12300
C1674       C  0.04855764  0.35813533  0.79570084     0.04700
C1675       C  0.05179973  0.33790025  0.81915597    -0.07500
C1676       C  0.03066027  0.34914091  0.84040325    -0.08300
C1677       C  0.00624409  0.38036518  0.83921821    -0.02800
C1678       C  0.00334527  0.40121348  0.81627733     0.04000
N1679       N  0.97722809  0.43197869  0.81392003     0.66500
H1680       H  0.02113569  0.40596765  0.77711470     0.15400
H1681       H  0.03296391  0.33283650  0.85801792     0.15100
N1682       N  0.07568399  0.30535776  0.82183112     0.74200
O1683       O  0.98891439  0.46552610  0.81628676    -0.39300
O1684       O  0.94506207  0.42612626  0.80419670    -0.39200
O1685       O  0.10860109  0.30925273  0.83081710    -0.39900
O1686       O  0.06143305  0.27268554  0.82056299    -0.40000
C1687       C  0.09286846  0.42783992  0.61600387    -0.12300
C1688       C  0.10895191  0.46338982  0.62092991     0.04700
C1689       C  0.13781545  0.46614183  0.63959584    -0.07500
C1690       C  0.14695466  0.43436075  0.65483307    -0.08300
C1691       C  0.12718074  0.40009780  0.65193023    -0.02800
C1692       C  0.10134360  0.39650166  0.63138494     0.04000
N1693       N  0.08142113  0.36192811  0.62697725     0.66500
H1694       H  0.07084900  0.42520806  0.60157145     0.15400
H1695       H  0.16696580  0.43755777  0.67048933     0.15100
N1696       N  0.15486647  0.50178030  0.64531802     0.74200
O1697       O  0.04890254  0.35773611  0.63644234    -0.39300
O1698       O  0.09211543  0.34015304  0.60915346    -0.39200
O1699       O  0.14288728  0.52112387  0.66403270    -0.39900
O1700       O  0.18603493  0.51016103  0.63511003    -0.40000
C1701       C  0.19578124  0.62993833  0.98958977    -0.12300
C1702       C  0.22925512  0.61628007  0.49679558     0.04700
C1703       C  0.23469572  0.59176124  0.51789925    -0.07500
C1704       C  0.20377874  0.58188274  0.53344002    -0.08300
C1705       C  0.16758961  0.59662831  0.52840749    -0.02800
C1706       C  0.16167724  0.61784102  0.50578117     0.04000
N1707       N  0.12766074  0.62984471  0.99639609     0.66500
H1708       H  0.19098985  0.64639431  0.97228075     0.15400
H1709       H  0.20876304  0.56568201  0.55082501     0.15100
N1710       N  0.27184155  0.58042226  0.52556366     0.74200
O1711       O  0.11560896  0.66298058  0.00051649    -0.39300
O1712       O  0.10559981  0.61418997  0.48262574    -0.39200
O1713       O  0.28903180  0.59907937  0.54264910    -0.39900
O1714       O  0.28393097  0.54803972  0.51931430    -0.40000
C1715       C  0.43905070  0.62500478  0.56679769    -0.12300
C1716       C  0.44138732  0.59996220  0.54577577     0.04700
C1717       C  0.46431639  0.56716484  0.54826309    -0.07500
C1718       C  0.48442143  0.56059636  0.57121414    -0.08300
C1719       C  0.48270707  0.58649706  0.59168156    -0.02800
C1720       C  0.45936232  0.61874226  0.58936641     0.04000
N1721       N  0.45502143  0.64504610  0.61008933     0.66500
H1722       H  0.42167179  0.65030852  0.56579664     0.15400
H1723       H  0.50230412  0.53570244  0.57273874     0.15100
N1724       N  0.46790982  0.54043713  0.52777522     0.74200
O1725       O  0.47417201  0.67513579  0.61021816    -0.39300
O1726       O  0.42658206  0.64247768  0.62455165    -0.39200
O1727       O  0.49635346  0.54188504  0.51323310    -0.39900
O1728       O  0.44752430  0.51118713  0.52769194    -0.40000
C1729       C  0.39080793  0.53852525  0.86330179    -0.12300
C1730       C  0.37811695  0.50208261  0.86944807     0.04700
C1731       C  0.35160380  0.49754626  0.88937940    -0.07500
C1732       C  0.34129705  0.52891834  0.90446757    -0.08300
C1733       C  0.35801079  0.56436979  0.90032349    -0.02800
C1734       C  0.38127830  0.56957477  0.87866430     0.04000
N1735       N  0.39795737  0.60553668  0.87327474     0.66500
H1736       H  0.41120500  0.54228104  0.84799676     0.15400
H1737       H  0.32367148  0.52456284  0.92121368     0.15100
N1738       N  0.33933540  0.46069430  0.89691295     0.74200
O1739       O  0.43023489  0.61311719  0.88223753    -0.39300
O1740       O  0.38470664  0.62550615  0.85524815    -0.39200
O1741       O  0.35741295  0.44293229  0.91406443    -0.39900
O1742       O  0.30681858  0.44956085  0.89048500    -0.40000
C1743       C  0.15816337  0.69821827  0.67435997    -0.12300
C1744       C  0.12179058  0.68302951  0.67100711     0.04700
C1745       C  0.09390827  0.69062147  0.68973596    -0.07500
C1746       C  0.10280816  0.71234995  0.71122623    -0.08300
C1747       C  0.13905251  0.72752892  0.71478061    -0.02800
C1748       C  0.16706000  0.72019668  0.69608917     0.04000
N1749       N  0.20412160  0.73577502  0.69834517     0.66500
H1750       H  0.17986437  0.69287487  0.66013650     0.15400
H1751       H  0.08074151  0.71756494  0.72522572     0.15100
N1752       N  0.05576943  0.67801493  0.68675157     0.74200
O1753       O  0.23021263  0.71612518  0.70825067    -0.39300
O1754       O  0.21242738  0.76507714  0.68571181    -0.39200
O1755       O  0.04385974  0.65098217  0.70033100    -0.39900
O1756       O  0.03243854  0.69832919  0.67453877    -0.40000
C1757       C  0.24398546  0.75597075  0.90737370    -0.12300
C1758       C  0.26004840  0.71945032  0.90652582     0.04700
C1759       C  0.25793668  0.69878396  0.88329650    -0.07500
C1760       C  0.24061315  0.71491604  0.86173326    -0.08300
C1761       C  0.22458925  0.75145173  0.86255441    -0.02800
C1762       C  0.22632880  0.77197134  0.88589242     0.04000
N1763       N  0.21012211  0.80894472  0.88838923     0.66500
H1764       H  0.24516840  0.77264004  0.92485850     0.15400
H1765       H  0.23945985  0.69823972  0.84425372     0.15100
N1766       N  0.27247587  0.66108055  0.88123143     0.74200
O1767       O  0.17719748  0.81250478  0.89733815    -0.39300
O1768       O  0.23094651  0.83773858  0.88647646    -0.39200
O1769       O  0.25141939  0.63342524  0.88656575    -0.39900
O1770       O  0.30312719  0.65527967  0.86950643    -0.40000
C1771       C  0.95933462  0.72894051  0.58350572    -0.12300
C1772       C  0.96847693  0.76424128  0.59436909     0.04700
C1773       C  0.00594046  0.77014158  0.60321250    -0.07500
C1774       C  0.03279410  0.74098283  0.60142374    -0.08300
C1775       C  0.02305844  0.70530747  0.59172731    -0.02800
C1776       C  0.98598283  0.69937883  0.58262356     0.04000
N1777       N  0.97477007  0.66327396  0.57288351     0.66500
H1778       H  0.93079723  0.72354262  0.57688103     0.15400
H1779       H  0.06093701  0.74560937  0.60907898     0.15100
N1780       N  0.01707312  0.80514542  0.61477066     0.74200
O1781       O  0.95906537  0.63985874  0.58769479    -0.39300
O1782       O  0.97332106  0.65806116  0.54889918    -0.39200
O1783       O  0.02004335  0.80724536  0.63892154    -0.39900
O1784       O  0.03173631  0.83053766  0.60100772    -0.40000
C1785       C  0.88440545  0.03306065  0.61562667    -0.12300
C1786       C  0.87607021  0.99601585  0.62333058     0.04700
C1787       C  0.85324768  0.99028959  0.64518990    -0.07500
C1788       C  0.84121118  0.02157079  0.65981087    -0.08300
C1789       C  0.85264608  0.05837932  0.65336632    -0.02800
C1790       C  0.87315109  0.06413122  0.63050264     0.04000
N1791       N  0.88540359  0.10114308  0.62327750     0.66500
H1792       H  0.90235888  0.03773197  0.59907755     0.15400
H1793       H  0.82642373  0.01669157  0.67772630     0.15100
N1794       N  0.84670006  0.95297297  0.65480769     0.74200
O1795       O  0.91838000  0.11173114  0.62904288    -0.39300
O1796       O  0.86668488  0.11957435  0.60679100    -0.39200
O1797       O  0.86885121  0.93919320  0.67143942    -0.39900
O1798       O  0.81539619  0.93713607  0.65057664    -0.40000
C1799       C  0.97665678  0.86713841  0.70702801    -0.12300
C1800       C  0.99319504  0.88705804  0.68662985     0.04700
C1801       C  0.03057709  0.90027352  0.68920413    -0.07500
C1802       C  0.05137466  0.89165973  0.71137345    -0.08300
C1803       C  0.03519034  0.87085365  0.73140088    -0.02800
C1804       C  0.99718018  0.85939586  0.72948832     0.04000
N1805       N  0.97980775  0.83785507  0.74943662     0.66500
H1806       H  0.94793618  0.85683234  0.70528563     0.15400
H1807       H  0.08063884  0.90044201  0.71269019     0.15100
N1808       N  0.04877723  0.91987188  0.66868908     0.74200
O1809       O  0.95861235  0.85442089  0.76538973    -0.39300
O1810       O  0.97844561  0.80225762  0.74744932    -0.39200
O1811       O  0.05206486  0.95541767  0.66975588    -0.39900
O1812       O  0.06760957  0.90138294  0.65233771    -0.40000
C1813       C  0.00498162  0.27434638  0.92644701    -0.12300
C1814       C  0.96704824  0.26390740  0.93015974     0.04700
C1815       C  0.95877887  0.22550716  0.93510722    -0.07500
C1816       C  0.98792654  0.19837473  0.93461085    -0.08300
C1817       C  0.02549305  0.20875718  0.92951144    -0.02800
C1818       C  0.03398769  0.24730243  0.92592195     0.04000
N1819       N  0.07083178  0.25890257  0.91817834     0.66500
H1820       H  0.01198698  0.30359319  0.92232915     0.15400
H1821       H  0.98091378  0.16874825  0.93716828     0.15100
N1822       N  0.92077972  0.21304797  0.93853218     0.74200
O1823       O  0.07828341  0.26052557  0.89449674    -0.39300
O1824       O  0.09181439  0.27597514  0.93401023    -0.39200
O1825       O  0.90309982  0.19905936  0.91970216    -0.39900
O1826       O  0.90847277  0.20791302  0.96100179    -0.40000
C1827       C  0.97846881  0.05765665  0.82195259    -0.12300
C1828       C  0.98599157  0.08797856  0.83877310     0.04700
C1829       C  0.97081875  0.12413041  0.83304813    -0.07500
C1830       C  0.94847046  0.12909882  0.81129880    -0.08300
C1831       C  0.94070141  0.09898841  0.79450840    -0.02800
C1832       C  0.95630921  0.06296386  0.79976937     0.04000
N1833       N  0.94909067  0.03136218  0.78332806     0.66500
H1834       H  0.98993628  0.02976280  0.82594738     0.15400
H1835       H  0.93734524  0.15720461  0.80744469     0.15100
N1836       N  0.97695370  0.15617202  0.84938412     0.74200
O1837       O  0.97379686  0.02121716  0.76725841    -0.39300
O1838       O  0.92200928  0.00944579  0.78833489    -0.39200
O1839       O  0.00339404  0.17887303  0.84436337    -0.39900
O1840       O  0.95190680  0.16567307  0.86539083    -0.40000
C1841       C  0.09928139  0.93480404  0.90763637    -0.12300
C1842       C  0.11184730  0.97107614  0.90112876     0.04700
C1843       C  0.13857583  0.97524743  0.88127697    -0.07500
C1844       C  0.14909338  0.94353410  0.86653452    -0.08300
C1845       C  0.13220657  0.90818212  0.87088214    -0.02800
C1846       C  0.10878531  0.90349199  0.89256756     0.04000
N1847       N  0.09109266  0.86801209  0.89790677     0.66500
H1848       H  0.07868368  0.93138053  0.92285740     0.15400
H1849       H  0.16678875  0.94758450  0.84978814     0.15100
N1850       N  0.15100322  0.01196063  0.87352924     0.74200
O1851       O  0.10457805  0.84709883  0.91534434    -0.39300
O1852       O  0.05776388  0.86234635  0.89014216    -0.39200
O1853       O  0.18387823  0.02269571  0.87940744    -0.39900
O1854       O  0.13260096  0.02987394  0.85661075    -0.40000
C1855       C  0.02761678  0.99225498  0.50994155    -0.12300
C1856       C  0.00932739  0.00249012  0.98680243     0.04700
C1857       C  0.97059255  0.99355833  0.98938025    -0.07500
C1858       C  0.95473011  0.96269243  0.51220857    -0.08300
C1859       C  0.97793306  0.96048012  0.53409330    -0.02800
C1860       C  0.01523152  0.97481049  0.53251269     0.04000
N1861       N  0.04142052  0.97133936  0.55334832     0.66500
H1862       H  0.05615579  0.00325151  0.50942398     0.15400
H1863       H  0.92757703  0.97080706  0.01361618     0.15100
N1864       N  0.94376588  0.00266885  0.96973143     0.74200
O1865       O  0.06336213  0.94309646  0.55418166    -0.39300
O1866       O  0.04819030  0.99975668  0.56733068    -0.39200
O1867       O  0.93217078  0.97692670  0.95485642    -0.39900
O1868       O  0.92618544  0.03379921  0.97070782    -0.40000
C1869       C  0.12480948  0.16174420  0.82660234    -0.12300
C1870       C  0.13614601  0.17757758  0.85025899     0.04700
C1871       C  0.15750991  0.21140232  0.85009968    -0.07500
C1872       C  0.16454527  0.22980587  0.82673869    -0.08300
C1873       C  0.15076656  0.21499076  0.80358997    -0.02800
C1874       C  0.13175925  0.18020229  0.80346500     0.04000
N1875       N  0.11930509  0.16330322  0.77994272     0.66500
H1876       H  0.10948938  0.13522648  0.82597205     0.15400
H1877       H  0.17947693  0.25656437  0.82679150     0.15100
N1878       N  0.17085743  0.22838632  0.87333600     0.74200
O1879       O  0.14000969  0.13904927  0.76896389    -0.39300
O1880       O  0.08525302  0.16684185  0.77307037    -0.39200
O1881       O  0.20327784  0.21970255  0.88164542    -0.39900
O1882       O  0.15496440  0.25799677  0.88162632    -0.40000
C1883       C  0.20106610  0.08509350  0.98962119    -0.12300
C1884       C  0.16530016  0.10044145  0.99504559     0.04700
C1885       C  0.15769378  0.12285582  0.51482253    -0.07500
C1886       C  0.18994105  0.13286775  0.52874030    -0.08300
C1887       C  0.22554081  0.11822507  0.52225408    -0.02800
C1888       C  0.23249946  0.09452565  0.00483104     0.04000
N1889       N  0.26937892  0.08358051  0.99645290     0.66500
H1890       H  0.20536629  0.06908069  0.97206916     0.15400
H1891       H  0.18759364  0.15443422  0.54352423     0.15100
N1892       N  0.12237357  0.14011534  0.52130183     0.74200
O1893       O  0.28163414  0.05084892  0.00163126    -0.39300
O1894       O  0.28071919  0.08585405  0.47669907    -0.39200
O1895       O  0.10312366  0.12646367  0.53943189    -0.39900
O1896       O  0.11485878  0.17297811  0.51318327    -0.40000
C1897       C  0.00195254  0.69817029  0.81107540    -0.12300
C1898       C  0.96450283  0.70943185  0.80625880     0.04700
C1899       C  0.95577781  0.74853724  0.80537264    -0.07500
C1900       C  0.98469571  0.77528089  0.80735466    -0.08300
C1901       C  0.02244181  0.76380661  0.80966010    -0.02800
C1902       C  0.03092766  0.72503082  0.81261322     0.04000
N1903       N  0.06883487  0.71261134  0.81712161     0.66500
H1904       H  0.00907888  0.66834582  0.81238314     0.15400
H1905       H  0.97784192  0.80507860  0.80532174     0.15100
N1906       N  0.91786086  0.76159534  0.80180281     0.74200
O1907       O  0.08147896  0.71183813  0.83982817    -0.39300
O1908       O  0.08679964  0.69592755  0.79948492    -0.39200
O1909       O  0.89908774  0.77262940  0.82101066    -0.39900
O1910       O  0.90644050  0.76978936  0.77948603    -0.40000
C1911       C  0.66198748  0.63138704  0.76302406    -0.12300
C1912       C  0.66772941  0.60212036  0.74526926     0.04700
C1913       C  0.70216602  0.58168944  0.74613412    -0.07500
C1914       C  0.73161495  0.59402327  0.76247877    -0.08300
C1915       C  0.72706572  0.62650173  0.77788202    -0.02800
C1916       C  0.69106357  0.64386788  0.77898797     0.04000
N1917       N  0.68447325  0.67674097  0.79440263     0.66500
H1918       H  0.63549654  0.64694004  0.76304927     0.15400
H1919       H  0.75900614  0.58029953  0.76135643     0.15100
N1920       N  0.70905434  0.55098892  0.72885603     0.74200
O1921       O  0.68399280  0.70888333  0.78377801    -0.39300
O1922       O  0.66978169  0.67290816  0.81631468    -0.39200
O1923       O  0.72850276  0.55645702  0.70891052    -0.39900
O1924       O  0.70266549  0.51753978  0.73614174    -0.40000
C1925       C  0.84026434  0.72309024  0.69057756    -0.12300
C1926       C  0.83719727  0.74256981  0.71393597     0.04700
C1927       C  0.83906178  0.78230656  0.71435649    -0.07500
C1928       C  0.84677746  0.80184387  0.69173478    -0.08300
C1929       C  0.85216482  0.78245531  0.66844201    -0.02800
C1930       C  0.84718823  0.74274317  0.66770358     0.04000
N1931       N  0.85122081  0.72171773  0.64436279     0.66500
H1932       H  0.83860207  0.69243025  0.69025560     0.15400
H1933       H  0.84944623  0.83241188  0.69255016     0.15100
N1934       N  0.83514685  0.80310017  0.73780368     0.74200
O1935       O  0.88380627  0.71365184  0.63617097    -0.39300
O1936       O  0.82282300  0.70536835  0.63477207    -0.39200
O1937       O  0.86319628  0.82082051  0.74670069    -0.39900
O1938       O  0.80249160  0.81110715  0.74588860    -0.40000
C1939       C  0.93200977  0.61586380  0.70179925    -0.12300
C1940       C  0.94186811  0.59898105  0.72541840     0.04700
C1941       C  0.97121458  0.57145163  0.72569267    -0.07500
C1942       C  0.99020581  0.56231954  0.70281591    -0.08300
C1943       C  0.98106091  0.58071592  0.67976713    -0.02800
C1944       C  0.95139159  0.60726508  0.67929127     0.04000
N1945       N  0.94048392  0.62574556  0.65594329     0.66500
H1946       H  0.90951134  0.63670595  0.70064499     0.15400
H1947       H  0.01335624  0.54213434  0.70331719     0.15100
N1948       N  0.98309452  0.55343659  0.74895714     0.74200
O1949       O  0.91195981  0.61407584  0.64371714    -0.39300
O1950       O  0.95431882  0.65763470  0.65049587    -0.39200
O1951       O  0.97256259  0.52001987  0.75357361    -0.39900
O1952       O  0.01027239  0.56723917  0.76157681    -0.40000
C1953       C  0.89887134  0.53712513  0.90468466    -0.12300
C1954       C  0.88475711  0.50109872  0.89890646     0.04700
C1955       C  0.85607377  0.49743635  0.88021599    -0.07500
C1956       C  0.84484630  0.52927625  0.86580566    -0.08300
C1957       C  0.86217304  0.56456074  0.86975490    -0.02800
C1958       C  0.88771157  0.56877180  0.89043682     0.04000
N1959       N  0.90425815  0.60467402  0.89622456     0.66500
H1960       H  0.92058236  0.54030708  0.91927729     0.15400
H1961       H  0.82548753  0.52553114  0.84982906     0.15100
N1962       N  0.84161172  0.46101231  0.87349082     0.74200
O1963       O  0.88808415  0.62632209  0.91210747    -0.39300
O1964       O  0.93823911  0.61078357  0.89026463    -0.39200
O1965       O  0.80937035  0.45123310  0.88129881    -0.39900
O1966       O  0.85814678  0.44140042  0.85659336    -0.40000
C1967       C  0.53441231  0.72106306  0.96175037    -0.12300
C1968       C  0.52443001  0.75971878  0.96200851     0.04700
C1969       C  0.48594837  0.76975628  0.95927730    -0.07500
C1970       C  0.45843032  0.74138301  0.95874984    -0.08300
C1971       C  0.46827151  0.70290030  0.96094144    -0.02800
C1972       C  0.50681502  0.69271929  0.96113193     0.04000
N1973       N  0.51840151  0.65402150  0.96316759     0.66500
H1974       H  0.56382603  0.71268737  0.96336393     0.15400
H1975       H  0.42890371  0.74968784  0.95833511     0.15100
N1976       N  0.47385892  0.80845051  0.95954177     0.74200
O1977       O  0.52729630  0.63596957  0.94311404    -0.39300
O1978       O  0.52681094  0.64052842  0.98491263    -0.39200
O1979       O  0.45834486  0.82238173  0.93980533    -0.39900
O1980       O  0.47162888  0.82591212  0.98067240    -0.40000
C1981       C  0.66681697  0.72600679  0.57511910    -0.12300
C1982       C  0.64311444  0.72120178  0.55373515     0.04700
C1983       C  0.61271499  0.69570730  0.55523352    -0.07500
C1984       C  0.60618222  0.67595471  0.57790784    -0.08300
C1985       C  0.62892785  0.68132682  0.59985176    -0.02800
C1986       C  0.65978144  0.70671139  0.59821980     0.04000
N1987       N  0.68361910  0.71413780  0.61983526     0.66500
H1988       H  0.69004725  0.74588015  0.57420726     0.15400
H1989       H  0.58238611  0.65673436  0.57826319     0.15100
N1990       N  0.58830256  0.68915401  0.53372738     0.74200
O1991       O  0.71383508  0.69547436  0.62259588    -0.39300
O1992       O  0.67873240  0.74407371  0.63270517    -0.39200
O1993       O  0.59404793  0.66072889  0.51952280    -0.39900
O1994       O  0.55696645  0.70625618  0.53246439    -0.40000
C1995       C  0.75444679  0.87501039  0.51239775    -0.12300
C1996       C  0.76019469  0.84752434  0.49326844     0.04700
C1997       C  0.79533506  0.85081228  0.98837956    -0.07500
C1998       C  0.82540753  0.86204526  0.00410559    -0.08300
C1999       C  0.82013886  0.86859800  0.52639114    -0.02800
C2000       C  0.78415583  0.88567727  0.52897870     0.04000
N2001       N  0.77602003  0.90991024  0.55025688     0.66500
H2002       H  0.72610241  0.88525028  0.51622619     0.15400
H2003       H  0.85410682  0.85589560  0.99811546     0.15100
N2004       N  0.80337755  0.83158058  0.96485683     0.74200
O2005       O  0.77577232  0.94532936  0.54703669    -0.39300
O2006       O  0.76168052  0.89611372  0.57034976    -0.39200
O2007       O  0.80780634  0.85060270  0.94456802    -0.39900
O2008       O  0.81478021  0.79771554  0.96558679    -0.40000
C2009       C  0.72396011  0.76478853  0.88618393    -0.12300
C2010       C  0.73625956  0.75183689  0.91028358     0.04700
C2011       C  0.76586368  0.72469508  0.91137852    -0.07500
C2012       C  0.78139434  0.71053784  0.88860301    -0.08300
C2013       C  0.76853439  0.72324524  0.86460081    -0.02800
C2014       C  0.73970787  0.75099890  0.86355838     0.04000
N2015       N  0.72483623  0.76455972  0.83969439     0.66500
H2016       H  0.70120525  0.78530966  0.88466614     0.15400
H2017       H  0.80410538  0.68990295  0.88976364     0.15100
N2018       N  0.78136737  0.71184181  0.93524285     0.74200
O2019       O  0.69469174  0.75046215  0.83102681    -0.39300
O2020       O  0.73607068  0.79590980  0.83099840    -0.39200
O2021       O  0.77101149  0.68030640  0.94412920    -0.39900
O2022       O  0.81187258  0.72610368  0.94319239    -0.40000
C2023       C  0.50531441  0.77436121  0.68135080    -0.12300
C2024       C  0.46696004  0.76383277  0.68169176     0.04700
C2025       C  0.45799091  0.72506903  0.68362865    -0.07500
C2026       C  0.48693735  0.69778542  0.68327890    -0.08300
C2027       C  0.52521583  0.70817937  0.68142265    -0.02800
C2028       C  0.53435134  0.74707757  0.68133409     0.04000
N2029       N  0.57261981  0.75940940  0.67894793     0.66500
H2030       H  0.51280579  0.80401952  0.67977720     0.15400
H2031       H  0.47928079  0.66807876  0.68342645     0.15100
N2032       N  0.41960006  0.71271972  0.68373348     0.74200
O2033       O  0.58868864  0.75801947  0.65733057    -0.39300
O2034       O  0.58774570  0.77779706  0.69704348    -0.39200
O2035       O  0.40439751  0.70165148  0.66309555    -0.39900
O2036       O  0.40324452  0.70680940  0.70486965    -0.40000
C2037       C  0.35147104  0.99644411  0.63247643    -0.12300
C2038       C  0.38141538  0.00212539  0.64981140     0.04700
C2039       C  0.39664724  0.03879602  0.65256409    -0.07500
C2040       C  0.38488404  0.06779697  0.63619259    -0.08300
C2041       C  0.35834895  0.06107760  0.61670117    -0.02800
C2042       C  0.33992463  0.02566216  0.61575307     0.04000
N2043       N  0.31316202  0.01736651  0.59594334     0.66500
H2044       H  0.33978286  0.96833206  0.63002460     0.15400
H2045       H  0.39881164  0.09505276  0.63744922     0.15100
N2046       N  0.42653604  0.04620982  0.67041589     0.74200
O2047       O  0.32466277  0.00519588  0.57451510    -0.39300
O2048       O  0.27860834  0.01462478  0.60152873    -0.39200
O2049       O  0.46004873  0.04867145  0.66235719    -0.39900
O2050       O  0.41859414  0.05859483  0.69251915    -0.40000
C2051       C  0.50501699  0.90916590  0.57034220    -0.12300
C2052       C  0.50673538  0.88380086  0.59108289     0.04700
C2053       C  0.53004820  0.85151195  0.58921849    -0.07500
C2054       C  0.54958993  0.84406078  0.56655998    -0.08300
C2055       C  0.54690988  0.86828815  0.54514352    -0.02800
C2056       C  0.52472096  0.90168969  0.54740200     0.04000
N2057       N  0.52172503  0.92828396  0.52678727     0.66500
H2058       H  0.48736492  0.93424989  0.57162334     0.15400
H2059       H  0.56679995  0.81862683  0.56585943     0.15100
N2060       N  0.53518320  0.82648173  0.61056896     0.74200
O2061       O  0.49548212  0.92481149  0.51048803    -0.39300
O2062       O  0.53958700  0.95910192  0.52810811    -0.39200
O2063       O  0.51856508  0.79491720  0.61078023    -0.39900
O2064       O  0.56170182  0.83251560  0.62629822    -0.40000
C2065       C  0.32194782  0.74136066  0.57591307    -0.12300
C2066       C  0.34576838  0.74497319  0.55456444     0.04700
C2067       C  0.37731400  0.76906550  0.55605327    -0.07500
C2068       C  0.38449003  0.78909191  0.57852902    -0.08300
C2069       C  0.36133118  0.78530017  0.60029558    -0.02800
C2070       C  0.32976117  0.76077760  0.59888871     0.04000
N2071       N  0.30590295  0.75446570  0.62057269     0.66500
H2072       H  0.29799611  0.72234654  0.57507100     0.15400
H2073       H  0.40908904  0.80728102  0.57889688     0.15100
N2074       N  0.40231491  0.77387499  0.53474265     0.74200
O2075       O  0.27542291  0.77286778  0.62261804    -0.39300
O2076       O  0.31103734  0.72537287  0.63425298    -0.39200
O2077       O  0.39843912  0.80237127  0.52033516    -0.39900
O2078       O  0.43250195  0.75477229  0.53376862    -0.40000
C2079       C  0.32509432  0.84595489  0.76329071    -0.12300
C2080       C  0.31894939  0.87072167  0.74263466     0.04700
C2081       C  0.28309866  0.88804962  0.73989736    -0.07500
C2082       C  0.25310709  0.87690924  0.75594486    -0.08300
C2083       C  0.25862361  0.84907016  0.77487076    -0.02800
C2084       C  0.29551165  0.83535227  0.77946881     0.04000
N2085       N  0.30284709  0.80872580  0.79959292     0.66500
H2086       H  0.35261871  0.83291461  0.76594835     0.15400
H2087       H  0.22488220  0.88754557  0.75210767     0.15100
N2088       N  0.27562409  0.91366210  0.71924427     0.74200
O2089       O  0.30959028  0.77454391  0.79408322    -0.39300
O2090       O  0.31007139  0.82070097  0.82193056    -0.39200
O2091       O  0.25945448  0.90177272  0.69916166    -0.39900
O2092       O  0.27806850  0.94885486  0.72312771    -0.40000
C2093       C  0.53054635  0.24259507  0.83746520    -0.12300
C2094       C  0.51826406  0.20487357  0.83821006     0.04700
C2095       C  0.47914122  0.19742732  0.83651870    -0.07500
C2096       C  0.45309208  0.22734705  0.83738629    -0.08300
C2097       C  0.46533771  0.26497115  0.83927643    -0.02800
C2098       C  0.50446737  0.27259618  0.83770008     0.04000
N2099       N  0.51808563  0.31054383  0.83562705     0.66500
H2100       H  0.56048606  0.24891725  0.83794992     0.15400
H2101       H  0.42316338  0.22095289  0.83761250     0.15100
N2102       N  0.46548314  0.15964116  0.83352167     0.74200
O2103       O  0.52832385  0.32815011  0.85553073    -0.39300
O2104       O  0.52721182  0.32322129  0.81384800    -0.39200
O2105       O  0.45026676  0.14310937  0.85227492    -0.39900
O2106       O  0.46116376  0.14633926  0.81119029    -0.40000
C2107       C  0.48233613  0.06209176  0.95265507    -0.12300
C2108       C  0.47545363  0.08399819  0.93062755     0.04700
C2109       C  0.44856867  0.11341408  0.93173125    -0.07500
C2110       C  0.43005479  0.12127803  0.95464125    -0.08300
C2111       C  0.43774168  0.10071756  0.97721086    -0.02800
C2112       C  0.46397438  0.07032334  0.97596065     0.04000
N2113       N  0.46791599  0.04233058  0.49150133     0.66500
H2114       H  0.50313226  0.03949177  0.95205379     0.15400
H2115       H  0.40975098  0.14433727  0.95457691     0.15100
N2116       N  0.43895279  0.13528971  0.90955568     0.74200
O2117       O  0.44827209  0.01257810  0.49100370    -0.39300
O2118       O  0.49578364  0.04433588  0.50662243    -0.39200
O2119       O  0.40891196  0.12760452  0.89753820    -0.39900
O2120       O  0.45377372  0.16746327  0.90664850    -0.40000
C2121       C  0.58925416  0.92944270  0.86651290    -0.12300
C2122       C  0.60380899  0.96543264  0.87200655     0.04700
C2123       C  0.63372834  0.96875806  0.88980947    -0.07500
C2124       C  0.64508841  0.93691726  0.90416516    -0.08300
C2125       C  0.62696410  0.90190235  0.90085288    -0.02800
C2126       C  0.60069713  0.89773600  0.88060120     0.04000
N2127       N  0.58398806  0.86184987  0.87492765     0.66500
H2128       H  0.56689638  0.92637253  0.85236867     0.15400
H2129       H  0.66551508  0.94046569  0.91953628     0.15100
N2130       N  0.64986481  0.00481410  0.89553346     0.74200
O2131       O  0.55253081  0.85347366  0.88473163    -0.39300
O2132       O  0.59571284  0.84324919  0.85579405    -0.39200
O2133       O  0.63904458  0.02278106  0.91517975    -0.39900
O2134       O  0.67963711  0.01487476  0.88417125    -0.40000
C2135       C  0.46868772  0.99248634  0.78175660    -0.12300
C2136       C  0.50760151  0.00036485  0.78337349     0.04700
C2137       C  0.53070938  0.99217138  0.76199432    -0.07500
C2138       C  0.51492266  0.97558446  0.74008600    -0.08300
C2139       C  0.47611120  0.96718672  0.73860703    -0.02800
C2140       C  0.45280195  0.97640710  0.75968885     0.04000
N2141       N  0.41279114  0.97112680  0.75874737     0.66500
H2142       H  0.45006548  0.99951381  0.79757889     0.15400
H2143       H  0.53354026  0.96887324  0.72420098     0.15100
N2144       N  0.57035249  0.99978272  0.76222839     0.74200
O2145       O  0.39833365  0.94276151  0.76965154    -0.39300
O2146       O  0.39178352  0.99818312  0.75170432    -0.39200
O2147       O  0.59319639  0.97397949  0.76876164    -0.39900
O2148       O  0.58263495  0.02897433  0.75107577    -0.40000
C2149       C  0.60225468  0.21438194  0.96185215    -0.12300
C2150       C  0.63943526  0.22755972  0.96496196     0.04700
C2151       C  0.66656603  0.21836016  0.94608222    -0.07500
C2152       C  0.65587341  0.19677170  0.92458938    -0.08300
C2153       C  0.61857783  0.18371374  0.92167390    -0.02800
C2154       C  0.59166515  0.19280576  0.94067860     0.04000
N2155       N  0.55299222  0.18159708  0.93845139     0.66500
H2156       H  0.58078034  0.22079437  0.97604703     0.15400
H2157       H  0.67693089  0.19004475  0.91018296     0.15100
N2158       N  0.70468332  0.23125113  0.94803665     0.74200
O2159       O  0.54176670  0.15257073  0.95030032    -0.39300
O2160       O  0.52899830  0.20482891  0.92972889    -0.39200
O2161       O  0.73008739  0.20863283  0.95556953    -0.39900
O2162       O  0.71401618  0.26172839  0.93714043    -0.40000
C2163       C  0.65585984  0.12063741  0.75896690    -0.12300
C2164       C  0.66325778  0.09693062  0.77997268     0.04700
C2165       C  0.69953186  0.08061836  0.78266035    -0.07500
C2166       C  0.72861382  0.09134503  0.76579773    -0.08300
C2167       C  0.72198973  0.11849460  0.74658387    -0.02800
C2168       C  0.68475217  0.13147934  0.74232573     0.04000
N2169       N  0.67646321  0.15825098  0.72247914     0.66500
H2170       H  0.62798855  0.13302280  0.75653432     0.15400
H2171       H  0.75720696  0.08166863  0.76954471     0.15100
N2172       N  0.70860345  0.05744315  0.80433846     0.74200
O2173       O  0.66868684  0.14641119  0.70019407    -0.39300
O2174       O  0.66827985  0.19193066  0.72848167    -0.39200
O2175       O  0.71556246  0.02269592  0.80106619    -0.39900
O2176       O  0.71683047  0.07284900  0.82552261    -0.40000
loop_ 
_geom_bond_atom_site_label_1 
_geom_bond_atom_site_label_2 
_geom_bond_distance 
_geom_bond_site_symmetry_2 
_ccdc_geom_bond_type 
O1           Ni7   1.928       .  S
O1           C22   1.275       .  A
O2          Ni25   1.887       .  S
O2           C11   1.259       .  A
O3           Ni7   1.911       .  S
O3          Ni25   1.894       .  S
O3          Ni19   1.907       .  S
O3           H26   0.966       .  S
C4           O21   1.279       .  A
C4           O13   1.274       .  A
C4         C1048   1.475       .  S
O5          Ni24   1.933       .  S
O5           C11   1.269       .  A
O6          Ni24   1.896       .  S
O6            C8   1.269       .  A
Ni7          O10   1.942       .  S
Ni7          O12   1.920       .  S
C8           O18   1.278       .  A
C8         C1034   1.480   1_545  S
O9          Ni25   1.887       .  S
O9           C15   1.270       .  A
O10          C15   1.280       .  A
C11        C1020   1.468       .  S
O12          C14   1.267       .  A
O13         Ni24   1.900       .  S
C14          O20   1.263       .  A
C14        C1006   1.478       .  S
C15        C1065   1.480       .  S
H16          O17   0.965       .  S
O17         Ni25   1.890       .  S
O17         Ni19   1.907       .  S
O17         Ni24   1.896       .  S
O18         Ni19   1.948       .  S
Ni19         O23   1.925       .  S
Ni19         O21   1.925       .  S
O20         Ni25   1.910       .  S
C22          O23   1.274       .  A
C22        C1076   1.480       .  S
O27         Ni33   1.948       .  S
O27          C48   1.274       .  A
O28         Ni51   1.939       .  S
O28          C37   1.276       .  A
O29         Ni33   1.898       .  S
O29         Ni51   1.913       .  S
O29         Ni45   1.890       .  S
O29          H52   0.966       .  S
C30          O47   1.272       .  A
C30          O39   1.279       .  A
C30         C981   1.484       .  S
O31         Ni50   1.926       .  S
O31          C37   1.273       .  A
O32         Ni50   1.925       .  S
O32          C34   1.268       .  A
Ni33         O36   1.910       .  S
Ni33         O38   1.896       .  S
C34          O44   1.264       .  A
C34         C936   1.484       .  S
O35         Ni51   1.919       .  S
O35          C41   1.280       .  A
O36          C41   1.276       .  A
C37         C992   1.488       .  S
O38          C40   1.270       .  A
O39         Ni50   1.938       .  S
C40          O46   1.278       .  A
C40         C950   1.479   1_565  S
C41        C1051   1.478       .  S
H42          O43   0.966       .  S
O43         Ni51   1.911       .  S
O43         Ni45   1.894       .  S
O43         Ni50   1.916       .  S
O44         Ni45   1.906       .  S
Ni45         O49   1.896       .  S
Ni45         O47   1.888       .  S
O46         Ni51   1.948       .  S
C48          O49   1.262       .  A
C48         C964   1.484       .  S
O53         Ni59   1.928       .  S
O53          C74   1.273       .  A
O54       Ni1165   1.880   1_554  S
O54          C63   1.261       .  A
O55         Ni59   1.911       .  S
O55         Ni77   1.885       .  S
O55         Ni71   1.911       .  S
O55          H78   0.966       .  S
C56          O73   1.280       .  A
C56          O65   1.275       .  A
C56         C922   1.481       .  S
O57       Ni1164   1.941   1_554  S
O57          C63   1.273       .  A
O58         Ni76   1.899       .  S
O58          C60   1.270       .  A
Ni59         O64   1.925       .  S
Ni59       O1150   1.940       .  S
C60          O70   1.280       .  A
C60        C1996   1.482       .  S
O61       Ni1165   1.906   1_554  S
O61          C67   1.276       .  A
O62       Ni1147   1.944   1_554  S
O62          C67   1.282       .  A
C63         C894   1.467       .  S
O64          C66   1.269       .  A
O65         Ni76   1.916       .  S
C66          O72   1.265       .  A
C66         C880   1.488       .  S
C67         C967   1.497       .  S
H68          O69   0.966       .  S
O69         Ni77   1.902       .  S
O69         Ni71   1.904       .  S
O69         Ni76   1.902       .  S
O70         Ni71   1.954       .  S
Ni71         O75   1.926       .  S
Ni71         O73   1.917       .  S
O72         Ni77   1.910       .  S
C74          O75   1.276       .  A
C74        C1037   1.483       .  S
Ni76       O1145   1.941       .  S
Ni77       O1142   1.885       .  S
Ni77       O1149   1.905       .  S
O79         Ni85   1.944       .  S
O79         C100   1.273       .  A
O80        Ni103   1.918       .  S
O80          C89   1.271       .  A
O81         Ni85   1.905       .  S
O81        Ni103   1.902       .  S
O81         Ni97   1.898       .  S
O81         H104   0.966       .  S
C82          O99   1.275       .  A
C82          O91   1.281       .  A
C82         C852   1.496       .  S
O83        Ni102   1.932       .  S
O83          C89   1.273       .  A
O84        Ni102   1.919       .  S
O84          C86   1.268       .  A
Ni85         O88   1.917       .  S
Ni85         O90   1.900       .  S
C86          O96   1.263       .  A
C86         C810   1.478       .  S
O87        Ni103   1.913       .  S
O87          C93   1.279       .  A
O88          C93   1.275       .  A
C89         C869   1.476       .  S
O90          C92   1.270       .  A
O91        Ni102   1.946       .  S
C92          O98   1.272       .  A
C92         C827   1.466       .  S
C93         C925   1.480       .  S
H94          O95   0.966       .  S
O95        Ni103   1.909       .  S
O95         Ni97   1.889       .  S
O95        Ni102   1.913       .  S
O96         Ni97   1.908       .  S
Ni97        O101   1.882       .  S
Ni97         O99   1.901       .  S
O98        Ni103   1.929       .  S
C100        O101   1.260       .  A
C100        C838   1.471       .  S
O105       Ni111   1.936       .  S
O105        C126   1.271   1_455  A
O106       Ni129   1.922       .  S
O106        C115   1.273       .  A
O107       Ni111   1.905       .  S
O107       Ni129   1.906       .  S
O107       Ni123   1.902       .  S
O107        H130   0.966       .  S
C108        O125   1.277       .  A
C108        O117   1.280       .  A
C108        C782   1.490       .  S
O109       Ni128   1.928       .  S
O109        C115   1.273       .  A
O110       Ni128   1.920       .  S
O110        C112   1.269       .  A
Ni111       O114   1.916   1_455  S
Ni111       O116   1.896   1_545  S
C112        O122   1.267       .  A
C112        C729   1.481       .  S
O113       Ni129   1.923       .  S
O113        C119   1.281       .  A
O114        C119   1.275   1_655  A
C115        C796   1.478       .  S
O116        C118   1.268       .  A
O117       Ni128   1.934       .  S
C118        O124   1.274   1_565  A
C118        C754   1.471       .  S
C119        C768   1.488   1_545  S
H120        O121   0.966       .  S
O121       Ni129   1.912       .  S
O121       Ni123   1.883       .  S
O121       Ni128   1.906       .  S
O122       Ni123   1.914       .  S
Ni123       O127   1.885       .  S
Ni123       O125   1.906       .  S
O124       Ni129   1.939       .  S
C126        O127   1.263   1_655  A
C126        C740   1.472       .  S
O131       Ni137   1.929       .  S
O131        C152   1.274       .  A
O132       Ni155   1.873       .  S
O132        C141   1.260       .  A
O133       Ni137   1.911       .  S
O133       Ni155   1.879       .  S
O133       Ni149   1.904       .  S
O133        H156   0.968       .  S
C134        O151   1.280       .  A
C134        O143   1.276       .  A
C134        C771   1.485       .  S
O135       Ni154   1.947       .  S
O135        C141   1.272       .  A
O136       Ni154   1.901       .  S
O136        C138   1.269       .  A
Ni137       O140   1.946       .  S
Ni137       O142   1.923       .  S
C138        O148   1.275       .  A
C138        C698   1.474   1_565  S
O139       Ni155   1.882       .  S
O139        C145   1.272       .  A
O140        C145   1.281       .  A
C141        C712   1.475   1_655  S
O142        C144   1.270       .  A
O143       Ni154   1.916       .  S
C144        O150   1.266       .  A
C144        C684   1.489       .  S
C145        C841   1.484       .  S
H146        O147   0.952       .  S
O147       Ni155   1.893       .  S
O147       Ni149   1.905       .  S
O147       Ni154   1.907       .  S
O148       Ni149   1.940       .  S
Ni149       O153   1.916       .  S
Ni149       O151   1.922       .  S
O150       Ni155   1.920       .  S
C152        O153   1.272       .  A
C152        C911   1.470       .  S
O157       Ni163   1.946       .  S
O157        C178   1.272       .  A
O158       Ni181   1.921       .  S
O158        C167   1.273       .  A
O159       Ni163   1.901       .  S
O159       Ni181   1.908       .  S
O159       Ni175   1.894       .  S
O159        H182   0.966       .  S
C160        O177   1.272       .  A
C160        O169   1.280       .  A
C160        C715   1.482       .  S
O161       Ni180   1.927       .  S
O161        C167   1.272       .  A
O162       Ni180   1.916       .  S
O162        C164   1.267       .  A
Ni163       O166   1.914       .  S
Ni163       O168   1.898       .  S
C164        O174   1.264       .  A
C164        C813   1.481       .  S
O165       Ni181   1.915       .  S
O165        C171   1.276       .  A
O166        C171   1.276       .  A
C167        C757   1.476       .  S
O168        C170   1.270       .  A
O169       Ni180   1.941       .  S
C170        O176   1.281       .  A
C170        C995   1.485       .  S
C171        C673   1.477       .  S
H172        O173   0.966       .  S
O173       Ni181   1.905       .  S
O173       Ni175   1.888       .  S
O173       Ni180   1.914       .  S
O174       Ni175   1.914       .  S
Ni175       O179   1.881       .  S
Ni175       O177   1.892       .  S
O176       Ni181   1.956       .  S
C178        O179   1.262       .  A
C178        C659   1.483       .  S
O183       Ni189   1.933       .  S
O183        C204   1.274       .  A
O184      Ni1295   1.886   1_554  S
O184        C193   1.261       .  A
O185       Ni189   1.912       .  S
O185       Ni207   1.884       .  S
O185       Ni201   1.908       .  S
O185        H208   0.966       .  S
C186        O203   1.277       .  A
C186        O195   1.276       .  A
C186        C670   1.482       .  S
O187      Ni1294   1.937   1_554  S
O187        C193   1.271       .  A
O188       Ni206   1.897       .  S
O188        C190   1.268       .  A
Ni189       O194   1.923       .  S
Ni189      O1280   1.943       .  S
C190        O200   1.277       .  A
C190       C1702   1.476       .  S
O191      Ni1295   1.893   1_554  S
O191        C197   1.274       .  A
O192      Ni1277   1.940   1_554  S
O192        C197   1.280       .  A
C193        C978   1.472       .  S
O194        C196   1.269       .  A
O195       Ni206   1.919       .  S
C196        O202   1.264       .  A
C196        C883   1.485       .  S
C197        C628   1.478       .  S
H198        O199   0.966       .  S
O199       Ni207   1.898       .  S
O199       Ni201   1.905       .  S
O199       Ni206   1.905       .  S
O200       Ni201   1.949       .  S
Ni201       O205   1.913       .  S
Ni201       O203   1.917       .  S
O202       Ni207   1.909       .  S
C204        O205   1.271       .  A
C204        C645   1.474       .  S
Ni206      O1275   1.941       .  S
Ni207      O1272   1.879       .  S
Ni207      O1279   1.898       .  S
O209       Ni215   1.939       .  S
O209        C230   1.275       .  A
O210       Ni233   1.889       .  S
O210        C219   1.261       .  A
O211       Ni215   1.916       .  S
O211       Ni233   1.890       .  S
O211       Ni227   1.902       .  S
O211        H234   0.966       .  S
C212        O229   1.275       .  A
C212        O221   1.276       .  A
C212        C572   1.474       .  S
O213       Ni232   1.942       .  S
O213        C219   1.272       .  A
O214       Ni232   1.897       .  S
O214        C216   1.269       .  A
Ni215       O218   1.939       .  S
Ni215       O220   1.926       .  S
C216        O226   1.277       .  A
C216        C558   1.475       .  S
O217       Ni233   1.892       .  S
O217        C223   1.272       .  A
O218        C223   1.281       .  A
C219        C785   1.476       .  S
O220        C222   1.269       .  A
O221       Ni232   1.919       .  S
C222        O228   1.265       .  A
C222        C544   1.483       .  S
C223        C586   1.483       .  S
H224        O225   0.966       .  S
O225       Ni233   1.899       .  S
O225       Ni227   1.910       .  S
O225       Ni232   1.909       .  S
O226       Ni227   1.945       .  S
Ni227       O231   1.916       .  S
Ni227       O229   1.910       .  S
O228       Ni233   1.909       .  S
C230        O231   1.271       .  A
C230        C603   1.477       .  S
O235       Ni241   1.947   1_556  S
O235       C1344   1.272       .  A
O236       Ni259   1.925       .  S
O236        C245   1.273       .  A
O237       Ni241   1.911       .  S
O237       Ni259   1.913       .  S
O237       Ni253   1.900       .  S
O237        H260   0.966       .  S
C238        O255   1.275       .  A
C238       O1335   1.280       .  A
C238       C1023   1.484       .  S
O239       Ni258   1.928       .  S
O239        C245   1.275       .  A
O240       Ni258   1.928       .  S
O240        C242   1.270       .  A
Ni241       O244   1.921       .  S
Ni241       O246   1.892       .  S
C242        O252   1.267       .  A
C242        C519   1.494       .  S
O243       Ni259   1.912       .  S
O243        C249   1.277       .  A
O244        C249   1.276       .  A
C245        C953   1.484       .  S
O246        C248   1.268       .  A
O247       Ni258   1.938       .  S
O247       C1326   1.280       .  A
C248        O254   1.276       .  A
C248        C799   1.468       .  S
C249        C575   1.477       .  S
H250        O251   0.966       .  S
O251       Ni259   1.905       .  S
O251       Ni253   1.882       .  S
O251       Ni258   1.908       .  S
O252       Ni253   1.917       .  S
Ni253       O257   1.882       .  S
Ni253      O1343   1.897   1_554  S
O254       Ni259   1.943       .  S
O255      Ni1341   1.892       .  S
C256       O1323   1.273       .  A
C256       O1345   1.261       .  A
C256        C530   1.482       .  S
O257       C1344   1.262   1_554  A
O261       Ni267   1.942       .  S
O261        C282   1.273       .  A
O262       Ni285   1.910       .  S
O262        C271   1.269       .  A
O263       Ni267   1.899       .  S
O263       Ni285   1.904       .  S
O263       Ni279   1.894       .  S
O263        H286   0.966       .  S
C264        O281   1.274       .  A
C264        O273   1.281       .  A
C264        C897   1.486       .  S
O265       Ni284   1.925       .  S
O265        C271   1.273       .  A
O266       Ni284   1.924       .  S
O266        C268   1.268       .  A
Ni267       O270   1.915       .  S
Ni267       O272   1.900       .  S
C268        O278   1.263       .  A
C268        C939   1.484       .  S
O269       Ni285   1.915       .  S
O269        C275   1.276       .  A
O270        C275   1.277       .  A
C271        C824   1.466       .  S
O272        C274   1.270       .  A
O273       Ni284   1.941       .  S
C274        O280   1.275       .  A
C274        C491   1.476       .  S
C275        C505   1.486       .  S
H276        O277   0.966       .  S
O277       Ni285   1.903       .  S
O277       Ni279   1.880       .  S
O277       Ni284   1.910       .  S
O278       Ni279   1.906       .  S
Ni279       O283   1.879       .  S
Ni279       O281   1.887       .  S
O280       Ni285   1.941       .  S
C282        O283   1.259       .  A
C282        C631   1.481       .  S
O287       Ni293   1.926       .  S
O287        C308   1.271       .  A
O288       Ni311   1.892       .  S
O288        C297   1.261       .  A
O289       Ni293   1.910       .  S
O289       Ni311   1.893       .  S
O289       Ni305   1.903       .  S
O289        H312   0.966       .  S
C290        O307   1.275       .  A
C290        O299   1.278       .  A
C290        C502   1.483       .  S
O291       Ni310   1.949       .  S
O291        C297   1.273       .  A
O292       Ni310   1.892       .  S
O292        C294   1.269       .  A
Ni293       O296   1.932       .  S
Ni293       O298   1.917       .  S
C294        O304   1.275       .  A
C294        C642   1.471       .  S
O295       Ni311   1.894       .  S
O295        C301   1.273       .  A
O296        C301   1.279       .  A
C297        C474   1.477       .  S
O298        C300   1.268       .  A
O299       Ni310   1.920       .  S
C300        O306   1.264       .  A
C300       C1009   1.481       .  S
C301        C533   1.473       .  S
H302        O303   0.966       .  S
O303       Ni311   1.894       .  S
O303       Ni305   1.912       .  S
O303       Ni310   1.900       .  S
O304       Ni305   1.942       .  S
Ni305       O309   1.924       .  S
Ni305       O307   1.909       .  S
O306       Ni311   1.909       .  S
C308        O309   1.272       .  A
C308        C561   1.479       .  S
O313       Ni319   1.931       .  S
O313        C334   1.273       .  A
O314       Ni337   1.875       .  S
O314        C323   1.260       .  A
O315       Ni319   1.912       .  S
O315       Ni337   1.882       .  S
O315       Ni331   1.903       .  S
O315        H338   0.966       .  S
C316        O333   1.277       .  A
C316        O325   1.274       .  A
C316        C460   1.479       .  S
O317       Ni336   1.946       .  S
O317        C323   1.272       .  A
O318       Ni336   1.898       .  S
O318        C320   1.270       .  A
Ni319       O322   1.945       .  S
Ni319       O324   1.923       .  S
C320        O330   1.277       .  A
C320       C1079   1.477       .  S
O321       Ni337   1.883       .  S
O321        C327   1.271       .  A
O322        C327   1.281       .  A
C323        C446   1.475       .  S
O324        C326   1.268       .  A
O325       Ni336   1.913       .  S
C326        O332   1.266       .  A
C326        C547   1.491       .  S
C327        C743   1.482       .  S
H328        O329   0.966       .  S
O329       Ni337   1.893       .  S
O329       Ni331   1.907       .  S
O329       Ni336   1.907       .  S
O330       Ni331   1.945       .  S
Ni331       O335   1.920       .  S
Ni331       O333   1.910       .  S
O332       Ni337   1.917       .  S
C334        O335   1.273       .  A
C334        C701   1.476       .  S
O339       Ni345   1.948   1_556  S
O339       C1448   1.274       .  A
O340       Ni363   1.924       .  S
O340        C349   1.275       .  A
O341       Ni345   1.906       .  S
O341       Ni363   1.906       .  S
O341       Ni357   1.896       .  S
O341        H364   0.966       .  S
C342        O359   1.275       .  A
C342       O1439   1.282       .  A
C342        C477   1.494       .  S
O343       Ni362   1.927       .  S
O343        C349   1.273       .  A
O344       Ni362   1.926       .  S
O344        C346   1.269       .  A
Ni345       O348   1.918       .  S
Ni345       O350   1.901       .  S
C346        O356   1.267       .  A
C346        C516   1.493       .  S
O347       Ni363   1.906       .  S
O347        C353   1.277       .  A
O348        C353   1.276       .  A
C349        C488   1.480       .  S
O350        C352   1.270       .  A
O351       Ni362   1.941       .  S
O351       C1430   1.281       .  A
C352        O358   1.279       .  A
C352        C432   1.476       .  S
C353        C463   1.480       .  S
H354        O355   0.966       .  S
O355       Ni363   1.906       .  S
O355       Ni357   1.877       .  S
O355       Ni362   1.909       .  S
O356       Ni357   1.920       .  S
Ni357       O361   1.875   1_554  S
Ni357      O1447   1.892   1_554  S
O358       Ni363   1.949       .  S
O359      Ni1445   1.894       .  S
C360       O1427   1.273       .  A
C360       O1449   1.262       .  A
C360       C1062   1.475       .  S
O361       C1448   1.262       .  A
O365       Ni371   1.932       .  S
O365        C386   1.273       .  A
O366       Ni389   1.891       .  S
O366        C375   1.262       .  A
O367       Ni371   1.910       .  S
O367       Ni389   1.892       .  S
O367       Ni383   1.908       .  S
O367        H390   0.966       .  S
C368        O385   1.278       .  A
C368        O377   1.278       .  A
C368        C421   1.483       .  S
O369       Ni388   1.950       .  S
O369        C375   1.274       .  A
O370       Ni388   1.897       .  S
O370        C372   1.268       .  A
Ni371       O374   1.935       .  S
Ni371       O376   1.920       .  S
C372        O382   1.276       .  A
C372        C600   1.474       .  S
O373       Ni389   1.903       .  S
O373        C379   1.274       .  A
O374        C379   1.280       .  A
C375        C855   1.481   1_455  S
O376        C378   1.269       .  A
O377       Ni388   1.919       .  S
C378        O384   1.266       .  A
C378        C687   1.484       .  S
C379        C656   1.483       .  S
H380        O381   0.966       .  S
O381       Ni389   1.896       .  S
O381       Ni383   1.914       .  S
O381       Ni388   1.903       .  S
O382       Ni383   1.946       .  S
Ni383       O387   1.921       .  S
Ni383       O385   1.921       .  S
O384       Ni389   1.918       .  S
C386        O387   1.272       .  A
C386        C617   1.476       .  S
O391       Ni397   1.941       .  S
O391        C412   1.270       .  A
O392       Ni415   1.922       .  S
O392        C401   1.273       .  A
O393       Ni397   1.907       .  S
O393       Ni415   1.909       .  S
O393       Ni409   1.892       .  S
O393        H416   0.966       .  S
C394        O411   1.271       .  A
C394        O403   1.281       .  A
C394        C449   1.479       .  S
O395       Ni414   1.929       .  S
O395        C401   1.274       .  A
O396       Ni414   1.920       .  S
O396        C398   1.268       .  A
Ni397       O400   1.910       .  S
Ni397       O402   1.894       .  S
C398        O408   1.268       .  A
C398        C726   1.493       .  S
O399       Ni415   1.922       .  S
O399        C405   1.279       .  A
O400        C405   1.275       .  A
C401        C435   1.478       .  S
O402        C404   1.268       .  A
O403       Ni414   1.940       .  S
C404        O410   1.276       .  A
C404        C866   1.473       .  S
C405        C418   1.484       .  S
H406        O407   0.966       .  S
O407       Ni415   1.906       .  S
O407       Ni409   1.886       .  S
O407       Ni414   1.909       .  S
O408       Ni409   1.921       .  S
Ni409       O413   1.876       .  S
Ni409       O411   1.889       .  S
O410       Ni415   1.944       .  S
C412        O413   1.261       .  A
C412        C589   1.473   1_655  S
C417        C422   1.401   1_556  A
C417       C1506   1.411   1_455  A
C417       H1512   1.084       .  S
C418       C1505   1.410   1_655  A
C418       C1507   1.410       .  A
C419        C420   1.396       .  A
C419       C1506   1.411   1_554  A
C419       N1514   1.430       .  S
C420        C421   1.407   1_655  A
C420        H425   1.084       .  S
C421        C422   1.411       .  A
C422        N423   1.430       .  S
N423        O427   1.262       .  A
N423        O428   1.262   1_554  A
H424       C1505   1.084       .  S
N426       C1507   1.429       .  S
N426        O430   1.262       .  A
N426       O1517   1.262       .  A
O429       N1514   1.262       .  A
C431        C436   1.408       .  A
C431       C1520   1.403       .  A
C431        H438   1.084       .  S
C432        C433   1.411       .  A
C432       C1519   1.403       .  A
C433        C434   1.399       .  A
C433        N440   1.428       .  S
C434       C1523   1.399   1_554  A
C434        H439   1.084       .  S
C435        C436   1.412       .  A
C435       C1522   1.401       .  A
C436        N437   1.428       .  S
N437        O441   1.262       .  A
N437        O442   1.261       .  A
N440        O444   1.262       .  A
N440        O443   1.261       .  A
C445        C446   1.402       .  A
C445        C450   1.388       .  A
C445        H452   1.085       .  S
C446        C447   1.410       .  A
C447        C448   1.405       .  A
C447        N454   1.428       .  S
C448        C449   1.407       .  A
C448        H453   1.084       .  S
C449        C450   1.414       .  A
C450        N451   1.431       .  S
N451        O455   1.262       .  A
N451        O456   1.262       .  A
N454        O458   1.262       .  A
N454        O457   1.262       .  A
C459        C460   1.404       .  A
C459        C464   1.395       .  A
C459        H466   1.084       .  S
C460        C461   1.415       .  A
C461        C462   1.393       .  A
C461        N468   1.429       .  S
C462        C463   1.404       .  A
C462        H467   1.084       .  S
C463        C464   1.415       .  A
C464        N465   1.429       .  S
N465        O469   1.261       .  A
N465        O470   1.262       .  A
N468        O472   1.262       .  A
N468        O471   1.262       .  A
C473        C474   1.405       .  A
C473        C478   1.409       .  A
C473        H480   1.084       .  S
C474        C475   1.407       .  A
C475        C476   1.390       .  A
C475        N482   1.428       .  S
C476        C477   1.408       .  A
C476        H481   1.084       .  S
C477        C478   1.418       .  A
C478        N479   1.428       .  S
N479        O483   1.262       .  A
N479       O1572   1.262       .  A
N482        O486   1.262       .  A
N482        O485   1.262       .  A
O484       N1567   1.262   1_554  A
C487        C488   1.406       .  A
C487        C492   1.409       .  A
C487        H494   1.084       .  S
C488        C489   1.411       .  A
C489        C490   1.395       .  A
C489        N496   1.430       .  S
C490        C491   1.401       .  A
C490        H495   1.085       .  S
C491        C492   1.410       .  A
C492        N493   1.428       .  S
N493        O497   1.262       .  A
N493        O498   1.262       .  A
N496        O500   1.262       .  A
N496        O499   1.262       .  A
C501        C502   1.407       .  A
C501        C506   1.396       .  A
C501        H508   1.084       .  S
C502        C503   1.412       .  A
C503        C504   1.397       .  A
C503        N510   1.430       .  S
C504        C505   1.408       .  A
C504        H509   1.083       .  S
C505        C506   1.413       .  A
C506        N507   1.429       .  S
N507        O511   1.262       .  A
N507        O512   1.262       .  A
N510        O514   1.262       .  A
N510        O513   1.262       .  A
C515        C516   1.408       .  A
C515        C520   1.406       .  A
C515        H522   1.084       .  S
C516        C517   1.412       .  A
C517        C518   1.405       .  A
C517        N524   1.429       .  S
C518        C519   1.408       .  A
C518        H523   1.084       .  S
C519        C520   1.413       .  A
C520        N521   1.429       .  S
N521        O525   1.262       .  A
N521        O526   1.262       .  A
N524        O528   1.262       .  A
N524        O527   1.262       .  A
C529        C530   1.406       .  A
C529        C534   1.387       .  A
C529        H536   1.084       .  S
C530        C531   1.414       .  A
C531        C532   1.404       .  A
C531        N538   1.428       .  S
C532        C533   1.405       .  A
C532        H537   1.084       .  S
C533        C534   1.409       .  A
C534        N535   1.431       .  S
N535        O539   1.262       .  A
N535        O540   1.262       .  A
N538        O542   1.262       .  A
N538        O541   1.262       .  A
C543        C544   1.406       .  A
C543        C548   1.403       .  A
C543        H550   1.084       .  S
C544        C545   1.409   1_455  A
C545        C546   1.404       .  A
C545        N552   1.429       .  S
C546        C547   1.409       .  A
C546        H551   1.084       .  S
C547        C548   1.412   1_655  A
C548        N549   1.428       .  S
N549        O553   1.262       .  A
N549        O554   1.262       .  A
N552        O556   1.262       .  A
N552        O555   1.262       .  A
C557        C558   1.401       .  A
C557        C562   1.396       .  A
C557        H564   1.084       .  S
C558        C559   1.410       .  A
C559        C560   1.408       .  A
C559        N566   1.428       .  S
C560        C561   1.406       .  A
C560        H565   1.084       .  S
C561        C562   1.411       .  A
C562        N563   1.430       .  S
N563        O567   1.262       .  A
N563        O568   1.262       .  A
N566        O570   1.262       .  A
N566        O569   1.262       .  A
C571        C572   1.402       .  A
C571        C576   1.398       .  A
C571        H578   1.084       .  S
C572        C573   1.411       .  A
C573        C574   1.397       .  A
C573        N580   1.430       .  S
C574        C575   1.403       .  A
C574        H579   1.084       .  S
C575        C576   1.413       .  A
C576        N577   1.429       .  S
N577        O581   1.262       .  A
N577        O582   1.262       .  A
N580        O584   1.262       .  A
N580        O583   1.262       .  A
C585        C586   1.409       .  A
C585        C590   1.406       .  A
C585        H592   1.083       .  S
C586        C587   1.415       .  A
C587        C588   1.386       .  A
C587        N594   1.429       .  S
C588        C589   1.398       .  A
C588        H593   1.085       .  S
C589        C590   1.410       .  A
C590        N591   1.428   1_455  S
N591        O595   1.262   1_655  A
N591        O596   1.262       .  A
N594        O598   1.261       .  A
N594        O597   1.262       .  A
C599        C600   1.402       .  A
C599        C604   1.399       .  A
C599        H606   1.084       .  S
C600        C601   1.410       .  A
C601        C602   1.406       .  A
C601        N608   1.428       .  S
C602        C603   1.404       .  A
C602        H607   1.084       .  S
C603        C604   1.409       .  A
C604        N605   1.429       .  S
N605        O609   1.262       .  A
N605        O610   1.262       .  A
N608        O612   1.262       .  A
N608        O611   1.262       .  A
C613       C1702   1.402       .  A
C613       C1706   1.400       .  A
C613        H620   1.084       .  S
C614       C1278   1.471       .  S
C614        C615   1.410   1_556  A
C614       C1701   1.401       .  A
C615        C616   1.405       .  A
C615        N622   1.429       .  S
C616        C617   1.404       .  A
C616        H621   1.084       .  S
C617        C618   1.410       .  A
C618       C1701   1.400   1_554  A
C618       N1707   1.428   1_554  S
N619       C1706   1.429       .  S
N619        O623   1.262       .  A
N619       O1712   1.262       .  A
N622        O626   1.261       .  A
N622        O625   1.262       .  A
O624       N1707   1.262       .  A
C627        C628   1.402       .  A
C627        C632   1.389       .  A
C627        H634   1.085       .  S
C628        C629   1.411       .  A
C629        C630   1.405       .  A
C629        N636   1.428       .  S
C630        C631   1.407       .  A
C630        H635   1.084       .  S
C631        C632   1.416       .  A
C632        N633   1.431       .  S
N633        O637   1.262       .  A
N633        O638   1.262       .  A
N636        O640   1.262       .  A
N636        O639   1.262       .  A
C641        C642   1.401       .  A
C641        C646   1.394       .  A
C641        H648   1.085       .  S
C642        C643   1.409       .  A
C643        C644   1.406       .  A
C643        N650   1.428       .  S
C644        C645   1.405       .  A
C644        H649   1.084       .  S
C645        C646   1.409       .  A
C646        N647   1.430       .  S
N647        O651   1.262       .  A
N647        O652   1.262       .  A
N650        O654   1.262       .  A
N650        O653   1.262       .  A
C655        C656   1.408       .  A
C655        C660   1.406       .  A
C655        H662   1.084       .  S
C656        C657   1.413       .  A
C657        C658   1.391       .  A
C657        N664   1.430       .  S
C658        C659   1.404       .  A
C658        H663   1.084       .  S
C659        C660   1.412       .  A
C660        N661   1.429       .  S
N661        O665   1.262       .  A
N661        O666   1.262       .  A
N664        O668   1.262       .  A
N664        O667   1.262       .  A
C669        C670   1.407       .  A
C669        C674   1.399       .  A
C669        H676   1.084       .  S
C670        C671   1.412       .  A
C671        C672   1.396       .  A
C671        N678   1.429       .  S
C672        C673   1.404       .  A
C672        H677   1.084       .  S
C673        C674   1.411       .  A
C674        N675   1.430       .  S
N675        O679   1.262       .  A
N675        O680   1.262       .  A
N678        O682   1.262       .  A
N678        O681   1.262       .  A
C683        C684   1.405       .  A
C683        C688   1.405       .  A
C683        H690   1.084       .  S
C684        C685   1.416   1_655  A
C685        C686   1.401       .  A
C685        N692   1.429       .  S
C686        C687   1.401       .  A
C686        H691   1.084       .  S
C687        C688   1.413   1_455  A
C688        N689   1.429       .  S
N689        O693   1.261       .  A
N689        O694   1.262       .  A
N692        O696   1.262       .  A
N692        O695   1.262       .  A
C697        C698   1.401       .  A
C697        C702   1.397       .  A
C697        H704   1.084       .  S
C698        C699   1.411   1_545  A
C699        C700   1.406   1_565  A
C699        N706   1.429       .  S
C700        C701   1.404       .  A
C700        H705   1.084       .  S
C701        C702   1.410       .  A
C702        N703   1.429       .  S
N703        O707   1.262       .  A
N703        O708   1.262       .  A
N706        O710   1.262       .  A
N706        O709   1.262       .  A
C711        C712   1.400       .  A
C711        C716   1.385       .  A
C711        H718   1.084       .  S
C712        C713   1.411       .  A
C713        C714   1.408       .  A
C713        N720   1.429   1_455  S
C714        C715   1.409       .  A
C714        H719   1.083       .  S
C715        C716   1.414       .  A
C716        N717   1.429       .  S
N717        O721   1.262       .  A
N717        O722   1.262       .  A
N720        O724   1.262   1_655  A
N720        O723   1.262       .  A
C725        C726   1.409   1_455  A
C725        C730   1.403       .  A
C725        H732   1.084       .  S
C726        C727   1.415       .  A
C727        C728   1.402       .  A
C727        N734   1.428       .  S
C728        C729   1.403   1_655  A
C728        H733   1.084       .  S
C729        C730   1.410       .  A
C730        N731   1.430       .  S
N731        O735   1.262       .  A
N731        O736   1.262       .  A
N734        O738   1.262       .  A
N734        O737   1.262       .  A
C739        C740   1.406       .  A
C739        C744   1.405       .  A
C739        H746   1.084       .  S
C740        C741   1.407       .  A
C741        C742   1.387       .  A
C741        N748   1.431       .  S
C742        C743   1.407       .  A
C742        H747   1.084       .  S
C743        C744   1.413       .  A
C744        N745   1.429       .  S
N745        O749   1.262       .  A
N745        O750   1.262       .  A
N748        O752   1.262       .  A
N748        O751   1.262       .  A
C753        C754   1.399       .  A
C753        C758   1.395       .  A
C753        H760   1.085       .  S
C754        C755   1.410       .  A
C755        C756   1.407       .  A
C755        N762   1.429   1_565  S
C756        C757   1.405       .  A
C756        H761   1.084       .  S
C757        C758   1.412       .  A
C758        N759   1.430       .  S
N759        O763   1.261       .  A
N759        O764   1.262       .  A
N762        O766   1.262       .  A
N762        O765   1.262       .  A
C767        C772   1.398       .  A
C767       C1856   1.402   1_564  A
C767        H774   1.084       .  S
C768        C769   1.419   1_455  A
C768       C1855   1.403       .  A
C769       C1858   1.398       .  A
C769        N776   1.429       .  S
C770        C771   1.404       .  A
C770       C1857   1.398   1_554  A
C770       H1863   1.084       .  S
C771        C772   1.417   1_655  A
C772        N773   1.430       .  S
N773        O777   1.262       .  A
N773        O778   1.262       .  A
H775       C1858   1.084       .  S
N776        O780   1.262   1_565  A
N776        O779   1.262       .  A
C781        C782   1.407       .  A
C781        C786   1.393       .  A
C781        H788   1.084       .  S
C782        C783   1.418       .  A
C783        C784   1.404       .  A
C783        N790   1.429       .  S
C784        C785   1.403       .  A
C784        H789   1.084       .  S
C785        C786   1.410       .  A
C786        N787   1.432       .  S
N787        O791   1.261       .  A
N787        O792   1.262       .  A
N790        O794   1.262       .  A
N790        O793   1.262       .  A
C795        C796   1.406       .  A
C795        C800   1.408       .  A
C795        H802   1.084       .  S
C796       C1885   1.409       .  A
C797        C798   1.397       .  A
C797       C1884   1.408   1_554  A
C797        N804   1.429       .  S
C798        C799   1.402       .  A
C798        H803   1.084       .  S
C799       C1888   1.409       .  A
C800       C1887   1.410       .  A
C800        N801   1.428       .  S
N801        O805   1.262       .  A
N801       O1894   1.262       .  A
N804        O808   1.262       .  A
N804        O807   1.262       .  A
O806       N1889   1.262       .  A
C809        C810   1.400   1_455  A
C809        C814   1.400       .  A
C809        H816   1.084       .  S
C810        C811   1.414       .  A
C811        C812   1.401       .  A
C811        N818   1.430       .  S
C812        C813   1.402   1_655  A
C812        H817   1.084       .  S
C813        C814   1.414       .  A
C814        N815   1.429       .  S
N815        O819   1.262       .  A
N815        O820   1.262       .  A
N818        O822   1.261       .  A
N818        O821   1.262       .  A
C823        C824   1.398       .  A
C823        C828   1.392       .  A
C823        H830   1.085       .  S
C824        C825   1.410       .  A
C825        C826   1.403       .  A
C825        N832   1.428       .  S
C826        C827   1.402       .  A
C826        H831   1.084       .  S
C827        C828   1.408       .  A
C828        N829   1.428       .  S
N829        O833   1.261       .  A
N829        O834   1.262       .  A
N832        O836   1.262       .  A
N832        O835   1.262       .  A
C837        C838   1.404       .  A
C837        C842   1.406       .  A
C837        H844   1.084       .  S
C838        C839   1.408       .  A
C839        C840   1.387       .  A
C839        N846   1.430       .  S
C840        C841   1.405       .  A
C840        H845   1.084       .  S
C841        C842   1.415       .  A
C842        N843   1.428       .  S
N843        O847   1.262       .  A
N843        O848   1.262       .  A
N846        O850   1.262       .  A
N846        O849   1.262       .  A
C851        C852   1.408       .  A
C851        C856   1.393       .  A
C851        H858   1.084       .  S
C852        C853   1.419       .  A
C853        C854   1.409       .  A
C853        N860   1.429       .  S
C854        C855   1.404       .  A
C854        H859   1.084   1_655  S
C855        C856   1.408       .  A
C856        N857   1.429       .  S
N857        O861   1.261       .  A
N857        O862   1.262       .  A
N860        O864   1.262   1_655  A
N860        O863   1.262       .  A
C865        C866   1.401       .  A
C865        C870   1.396       .  A
C865        H872   1.085       .  S
C866        C867   1.411       .  A
C867        C868   1.408       .  A
C867        N874   1.429       .  S
C868        C869   1.406       .  A
C868        H873   1.084       .  S
C869        C870   1.409       .  A
C870        N871   1.429       .  S
N871        O875   1.262       .  A
N871        O876   1.262       .  A
N874        O878   1.262       .  A
N874        O877   1.262       .  A
C879        C880   1.408       .  A
C879        C884   1.402       .  A
C879        H886   1.084       .  S
C880        C881   1.412       .  A
C881        C882   1.403       .  A
C881        N888   1.429       .  S
C882        C883   1.408       .  A
C882        H887   1.084       .  S
C883        C884   1.409       .  A
C884        N885   1.429       .  S
N885        O889   1.262       .  A
N885        O890   1.262       .  A
N888        O892   1.262       .  A
N888        O891   1.262       .  A
C893        C894   1.403       .  A
C893        C898   1.404       .  A
C893        H900   1.084       .  S
C894        C895   1.406       .  A
C895        C896   1.387       .  A
C895        N902   1.431       .  S
C896        C897   1.408       .  A
C896        H901   1.084       .  S
C897        C898   1.417       .  A
C898        N899   1.429       .  S
N899        O903   1.262       .  A
N899        O904   1.262       .  A
N902        O906   1.262       .  A
N902        O905   1.262       .  A
C907        C908   1.401   1_554  A
C907        C912   1.403       .  A
C907        H914   1.084       .  S
C908       C1148   1.469       .  S
C908       C1997   1.409       .  A
C909        C910   1.398       .  A
C909       C1996   1.412       .  A
C909        N916   1.428       .  S
C910       C1999   1.400       .  A
C910        H915   1.084       .  S
C911        C912   1.411       .  A
C911       C1998   1.399       .  A
C912        N913   1.429       .  S
N913        O917   1.262       .  A
N913        O918   1.262       .  A
N916        O920   1.261       .  A
N916        O919   1.262       .  A
C921        C922   1.403       .  A
C921        C926   1.397       .  A
C921        H928   1.084       .  S
C922        C923   1.416       .  A
C923        C924   1.394       .  A
C923        N930   1.429       .  S
C924        C925   1.402       .  A
C924        H929   1.084       .  S
C925        C926   1.416       .  A
C926        N927   1.429       .  S
N927        O931   1.261       .  A
N927        O932   1.262       .  A
N930        O934   1.261       .  A
N930        O933   1.262       .  A
C935        C936   1.408       .  A
C935        C940   1.402       .  A
C935        H942   1.084       .  S
C936        C937   1.409       .  A
C937        C938   1.402       .  A
C937        N944   1.429       .  S
C938        C939   1.408       .  A
C938        H943   1.084       .  S
C939        C940   1.409       .  A
C940        N941   1.429       .  S
N941        O945   1.262       .  A
N941        O946   1.262       .  A
N944        O948   1.262       .  A
N944        O947   1.262       .  A
C949        C950   1.404       .  A
C949        C954   1.411       .  A
C949        H956   1.084   1_545  S
C950        C951   1.411       .  A
C951        C952   1.394       .  A
C951        N958   1.430       .  S
C952        C953   1.401       .  A
C952        H957   1.084       .  S
C953        C954   1.415       .  A
C954        N955   1.428       .  S
N955        O959   1.262       .  A
N955        O960   1.262       .  A
N958        O962   1.262       .  A
N958        O961   1.262       .  A
C963        C964   1.405       .  A
C963        C968   1.409       .  A
C963        H970   1.084       .  S
C964        C965   1.410       .  A
C965        C966   1.395       .  A
C965        N972   1.430       .  S
C966        C967   1.409       .  A
C966        H971   1.084       .  S
C967        C968   1.418       .  A
C968        N969   1.429       .  S
N969        O973   1.262       .  A
N969        O974   1.262       .  A
N972        O976   1.262       .  A
N972        O975   1.262       .  A
C977        C978   1.404       .  A
C977        C982   1.403       .  A
C977        H984   1.084       .  S
C978        C979   1.408       .  A
C979        C980   1.390       .  A
C979        N986   1.431       .  S
C980        C981   1.408       .  A
C980        H985   1.084       .  S
C981        C982   1.415       .  A
C982        N983   1.429       .  S
N983        O987   1.262       .  A
N983        O988   1.262       .  A
N986        O990   1.262       .  A
N986        O989   1.262       .  A
C991        C992   1.403       .  A
C991        C996   1.398       .  A
C991        H998   1.084       .  S
C992        C993   1.414       .  A
C993        C994   1.413       .  A
C993       N1000   1.428       .  S
C994        C995   1.406       .  A
C994        H999   1.084       .  S
C995        C996   1.413       .  A
C996        N997   1.431       .  S
N997       O1001   1.262       .  A
N997       O1002   1.262       .  A
N1000      O1004   1.262       .  A
N1000      O1003   1.262       .  A
C1005      C1006   1.400       .  A
C1005      C1010   1.401       .  A
C1005      H1012   1.084       .  S
C1006      C1007   1.413       .  A
C1007      C1008   1.400       .  A
C1007      N1014   1.429       .  S
C1008      C1009   1.402       .  A
C1008      H1013   1.084       .  S
C1009      C1010   1.415       .  A
C1010      N1011   1.429       .  S
N1011      O1015   1.260       .  A
N1011      O1016   1.261       .  A
N1014      O1018   1.262       .  A
N1014      O1017   1.260       .  A
C1019      C1020   1.403       .  A
C1019      C1024   1.403       .  A
C1019      H1026   1.084       .  S
C1020      C1021   1.408       .  A
C1021      C1022   1.388       .  A
C1021      N1028   1.431       .  S
C1022      C1023   1.406       .  A
C1022      H1027   1.084       .  S
C1023      C1024   1.416       .  A
C1024      N2113   1.428       .  S
N1025      C2112   1.428       .  S
N1025      O1029   1.262   1_556  A
N1025      O1030   1.262   1_556  A
N1028      O1032   1.261       .  A
N1028      O1031   1.262       .  A
C1033      C1034   1.402       .  A
C1033      C1038   1.396       .  A
C1033      H1040   1.085       .  S
C1034      C1035   1.411       .  A
C1035      C1036   1.409       .  A
C1035      N1042   1.428   1_565  S
C1036      C1037   1.406       .  A
C1036      H1041   1.084       .  S
C1037      C1038   1.412       .  A
C1038      N1039   1.430       .  S
N1039      O1043   1.262       .  A
N1039      O1044   1.262       .  A
N1042      O1046   1.261       .  A
N1042      O1045   1.262       .  A
C1047      C1048   1.406   1_565  A
C1047      C1052   1.393       .  A
C1047      H1054   1.084       .  S
C1048      C1049   1.408       .  A
C1049      C1050   1.397   1_545  A
C1049      N1056   1.430       .  S
C1050      C1051   1.409       .  A
C1050      H1055   1.084   1_565  S
C1051      C1052   1.409       .  A
C1052      N1053   1.429       .  S
N1053      O1057   1.262       .  A
N1053      O1058   1.262       .  A
N1056      O1060   1.262       .  A
N1056      O1059   1.262       .  A
C1061      C1062   1.400       .  A
C1061      C1066   1.386       .  A
C1061      H1068   1.085       .  S
C1062      C1063   1.411       .  A
C1063      C1064   1.406       .  A
C1063      N1070   1.428       .  S
C1064      C1065   1.408       .  A
C1064      H1069   1.084       .  S
C1065      C1066   1.413       .  A
C1066      N1067   1.429       .  S
N1067      O1071   1.262       .  A
N1067      O1072   1.261       .  A
N1070      O1074   1.262       .  A
N1070      O1073   1.262       .  A
C1075      C1076   1.402       .  A
C1075      C1080   1.395       .  A
C1075      H1082   1.085       .  S
C1076      C1077   1.412       .  A
C1077      C1078   1.410       .  A
C1077      N1084   1.428       .  S
C1078      C1079   1.405       .  A
C1078      H1083   1.084       .  S
C1079      C1080   1.410       .  A
C1080      N1081   1.430       .  S
N1081      O1085   1.262       .  A
N1081      O1086   1.262       .  A
N1084      O1088   1.262       .  A
N1084      O1087   1.262       .  A
O1089     Ni1095   1.925       .  S
O1089      C1110   1.272       .  A
O1090     Ni1113   1.890       .  S
O1090      C1099   1.262       .  A
O1091     Ni1095   1.907       .  S
O1091     Ni1113   1.893       .  S
O1091     Ni1107   1.905       .  S
O1091      H1114   0.966       .  S
C1092      O1109   1.278       .  A
C1092      O1101   1.278       .  A
C1092      C2136   1.483       .  S
O1093     Ni1112   1.944       .  S
O1093      C1099   1.273       .  A
O1094     Ni1112   1.902   1_565  S
O1094      C1096   1.270       .  A
Ni1095     O1098   1.930       .  S
Ni1095     O1100   1.918       .  S
C1096      O1106   1.274   1_565  A
C1096      C2122   1.476       .  S
O1097     Ni1113   1.903       .  S
O1097      C1103   1.275       .  A
O1098      C1103   1.279       .  A
C1099      C2108   1.473       .  S
O1100      C1102   1.268       .  A
O1101     Ni1112   1.916       .  S
C1102      O1108   1.265       .  A
C1102      C2094   1.481       .  S
C1103      C2153   1.478       .  S
H1104      O1105   0.966       .  S
O1105     Ni1113   1.896       .  S
O1105     Ni1107   1.906       .  S
O1105     Ni1112   1.899       .  S
O1106     Ni1107   1.939       .  S
Ni1107     O1111   1.921       .  S
Ni1107     O1109   1.919       .  S
O1108     Ni1113   1.913       .  S
C1110      O1111   1.271       .  A
C1110      C2164   1.475       .  S
O1115     Ni1121   1.942       .  S
O1115      C1136   1.272       .  A
O1116     Ni1139   1.925       .  S
O1116      C1125   1.273       .  A
O1117     Ni1121   1.903       .  S
O1117     Ni1139   1.912       .  S
O1117     Ni1133   1.901       .  S
O1117      H1140   0.966       .  S
C1118      O1135   1.276       .  A
C1118      O1127   1.280       .  A
C1118      C2069   1.486       .  S
O1119     Ni1138   1.931       .  S
O1119      C1125   1.275       .  A
O1120     Ni1138   1.927       .  S
O1120      C1122   1.270       .  A
Ni1121     O1124   1.911       .  S
Ni1121     O1126   1.897       .  S
C1122      O1132   1.265       .  A
C1122      C2024   1.489       .  S
O1123     Ni1139   1.922       .  S
O1123      C1129   1.278       .  A
O1124      C1129   1.276       .  A
C1125      C2080   1.481       .  S
O1126      C1128   1.269       .  A
O1127     Ni1138   1.940       .  S
C1128      O1134   1.277       .  A
C1128      C2038   1.476   1_565  S
C1129      C2139   1.483       .  S
H1130      O1131   0.966       .  S
O1131     Ni1139   1.906       .  S
O1131     Ni1133   1.888       .  S
O1131     Ni1138   1.911       .  S
O1132     Ni1133   1.913       .  S
Ni1133     O1137   1.892       .  S
Ni1133     O1135   1.894       .  S
O1134     Ni1139   1.943       .  S
C1136      O1137   1.262       .  A
C1136      C2052   1.477       .  S
O1141     Ni1147   1.930       .  S
O1141      C1162   1.272       .  A
O1142      C1151   1.261       .  A
O1143     Ni1147   1.908       .  S
O1143     Ni1165   1.884       .  S
O1143     Ni1159   1.912       .  S
O1143      H1166   0.966       .  S
C1144      O1161   1.279       .  A
C1144      O1153   1.275       .  A
C1144      C2010   1.480       .  S
O1145      C1151   1.273       .  A
O1146     Ni1164   1.899       .  S
O1146      C1148   1.269       .  A
Ni1147     O1152   1.917       .  S
C1148      O1158   1.275       .  A
O1149      C1155   1.277       .  A
O1150      C1155   1.281       .  A
C1151      C1982   1.471       .  S
O1152      C1154   1.268       .  A
O1153     Ni1164   1.919       .  S
C1154      O1160   1.266       .  A
C1154      C1968   1.485       .  S
C1155      C2055   1.493       .  S
H1156      O1157   0.966       .  S
O1157     Ni1165   1.899       .  S
O1157     Ni1159   1.901       .  S
O1157     Ni1164   1.905       .  S
O1158     Ni1159   1.938       .  S
Ni1159     O1163   1.920       .  S
Ni1159     O1161   1.910       .  S
O1160     Ni1165   1.911       .  S
C1162      O1163   1.273       .  A
C1162      C2125   1.477       .  S
O1167     Ni1173   1.921       .  S
O1167      C1188   1.267       .  A
O1168     Ni1191   1.921       .  S
O1168      C1177   1.273       .  A
O1169     Ni1173   1.895       .  S
O1169     Ni1191   1.905       .  S
O1169     Ni1185   1.903       .  S
O1169      H1192   0.965       .  S
C1170      O1187   1.276       .  A
C1170      O1179   1.281       .  A
C1170      C1940   1.490       .  S
O1171     Ni1190   1.931       .  S
O1171      C1177   1.273       .  A
O1172     Ni1190   1.912       .  S
O1172      C1174   1.267       .  A
Ni1173     O1176   1.899       .  S
Ni1173     O1178   1.897       .  S
C1174      O1184   1.266       .  A
C1174      C1898   1.479       .  S
O1175     Ni1191   1.922       .  S
O1175      C1181   1.278       .  A
O1176      C1181   1.271       .  A
C1177      C1957   1.477       .  S
O1178      C1180   1.269       .  A
O1179     Ni1190   1.943       .  S
C1180      O1186   1.279       .  A
C1180      C1915   1.485       .  S
C1181      C2013   1.473       .  S
H1182      O1183   0.966       .  S
O1183     Ni1191   1.904       .  S
O1183     Ni1185   1.890       .  S
O1183     Ni1190   1.906       .  S
O1184     Ni1185   1.918       .  S
Ni1185     O1189   1.900       .  S
Ni1185     O1187   1.896       .  S
O1186     Ni1191   1.949       .  S
C1188      O1189   1.265       .  A
C1188      C1926   1.459       .  S
O1193     Ni1199   1.940       .  S
O1193      C1214   1.272       .  A
O1194     Ni1217   1.911       .  S
O1194      C1203   1.270       .  A
O1195     Ni1199   1.908       .  S
O1195     Ni1217   1.910       .  S
O1195     Ni1211   1.900       .  S
O1195      H1218   0.966       .  S
C1196      O1213   1.274       .  A
C1196      O1205   1.280       .  A
C1196      C1870   1.483       .  S
O1197     Ni1216   1.935       .  S
O1197      C1203   1.275       .  A
O1198     Ni1216   1.924       .  S
O1198      C1200   1.269       .  A
Ni1199     O1202   1.919       .  S
Ni1199     O1204   1.898       .  S
C1200      O1210   1.264       .  A
C1200      C1817   1.481       .  S
O1201     Ni1217   1.912       .  S
O1201      C1207   1.276       .  A
O1202      C1207   1.275       .  A
C1203      C1884   1.472       .  S
O1204      C1206   1.269       .  A
O1205     Ni1216   1.939       .  S
C1206      O1212   1.274       .  A
C1206      C1842   1.470   1_545  S
C1207      C1856   1.481       .  S
H1208      O1209   0.966       .  S
O1209     Ni1217   1.903       .  S
O1209     Ni1211   1.885       .  S
O1209     Ni1216   1.912       .  S
O1210     Ni1211   1.911       .  S
Ni1211     O1215   1.881       .  S
Ni1211     O1213   1.894       .  S
O1212     Ni1217   1.938       .  S
C1214      O1215   1.260       .  A
C1214      C1828   1.481   1_455  S
O1219     Ni1225   1.936       .  S
O1219      C1240   1.276       .  A
O1220     Ni1243   1.896       .  S
O1220      C1229   1.264       .  A
O1221     Ni1225   1.904       .  S
O1221     Ni1243   1.886       .  S
O1221     Ni1237   1.894       .  S
O1221      H1244   0.967       .  S
C1222      O1239   1.276       .  A
C1222      O1231   1.271       .  A
C1222      C1859   1.489       .  S
O1223     Ni1242   1.931       .  S
O1223      C1229   1.270       .  A
O1224     Ni1242   1.907       .  S
O1224      C1226   1.271       .  A
Ni1225     O1228   1.943       .  S
Ni1225     O1230   1.921       .  S
C1226      O1236   1.276       .  A
C1226      C1786   1.474       .  S
O1227     Ni1243   1.889       .  S
O1227      C1233   1.275       .  A
O1228      C1233   1.281       .  A
C1229      C1800   1.474       .  S
O1230      C1232   1.270       .  A
O1231     Ni1242   1.912       .  S
C1232      O1238   1.267       .  A
C1232      C1772   1.490       .  S
C1233      C1929   1.474       .  S
H1234      O1235   0.966       .  S
O1235     Ni1243   1.912       .  S
O1235     Ni1237   1.918       .  S
O1235     Ni1242   1.910       .  S
O1236     Ni1237   1.939       .  S
Ni1237     O1241   1.924       .  S
Ni1237     O1239   1.919       .  S
O1238     Ni1243   1.922       .  S
C1240      O1241   1.273       .  A
C1240      C1999   1.484       .  S
O1245     Ni1251   1.943       .  S
O1245      C1266   1.273       .  A
O1246     Ni1269   1.916       .  S
O1246      C1255   1.271       .  A
O1247     Ni1251   1.900       .  S
O1247     Ni1269   1.904       .  S
O1247     Ni1263   1.902       .  S
O1247      H1270   0.966       .  S
C1248      O1265   1.276       .  A
C1248      O1257   1.279       .  A
C1248      C1803   1.469       .  S
O1249     Ni1268   1.929       .  S
O1249      C1255   1.272       .  A
O1250     Ni1268   1.907       .  S
O1250      C1252   1.265       .  A
Ni1251     O1254   1.916       .  S
Ni1251     O1256   1.904       .  S
C1252      O1262   1.267       .  A
C1252      C1901   1.471       .  S
O1253     Ni1269   1.916       .  S
O1253      C1259   1.275       .  A
O1254      C1259   1.277       .  A
C1255      C1845   1.475       .  S
O1256      C1258   1.270       .  A
O1257     Ni1268   1.940       .  S
C1258      O1264   1.278       .  A
C1258      C2083   1.479       .  S
C1259      C1761   1.487       .  S
H1260      O1261   0.966       .  S
O1261     Ni1269   1.905       .  S
O1261     Ni1263   1.890       .  S
O1261     Ni1268   1.910       .  S
O1262     Ni1263   1.921       .  S
Ni1263     O1267   1.887       .  S
Ni1263     O1265   1.907       .  S
O1264     Ni1269   1.945       .  S
C1266      O1267   1.265       .  A
C1266      C1747   1.482       .  S
O1271     Ni1277   1.931       .  S
O1271      C1292   1.273       .  A
O1272      C1281   1.259       .  A
O1273     Ni1277   1.912       .  S
O1273     Ni1295   1.885       .  S
O1273     Ni1289   1.906       .  S
O1273      H1296   0.966       .  S
C1274      O1291   1.275       .  A
C1274      O1283   1.276       .  A
C1274      C1758   1.487       .  S
O1275      C1281   1.272       .  A
O1276     Ni1294   1.896       .  S
O1276      C1278   1.267       .  A
Ni1277     O1282   1.920       .  S
C1278      O1288   1.276       .  A
O1279      C1285   1.275       .  A
O1280      C1285   1.281       .  A
C1281      C2066   1.469       .  S
O1282      C1284   1.268       .  A
O1283     Ni1294   1.917       .  S
C1284      O1290   1.265       .  A
C1284      C1971   1.481       .  S
C1285      C1716   1.492       .  S
H1286      O1287   0.966       .  S
O1287     Ni1295   1.898       .  S
O1287     Ni1289   1.907       .  S
O1287     Ni1294   1.906       .  S
O1288     Ni1289   1.942       .  S
Ni1289     O1293   1.913       .  S
Ni1289     O1291   1.913       .  S
O1290     Ni1295   1.906       .  S
C1292      O1293   1.271       .  A
C1292      C1733   1.472       .  S
O1297     Ni1303   1.933       .  S
O1297      C1318   1.275       .  A
O1298     Ni1321   1.895       .  S
O1298      C1307   1.263       .  A
O1299     Ni1303   1.901       .  S
O1299     Ni1321   1.890       .  S
O1299     Ni1315   1.905       .  S
O1299      H1322   0.966       .  S
C1300      O1317   1.280       .  A
C1300      O1309   1.275       .  A
C1300      C1660   1.477       .  S
O1301     Ni1320   1.931       .  S
O1301      C1307   1.269       .  A
O1302     Ni1320   1.898       .  S
O1302      C1304   1.269       .  A
Ni1303     O1306   1.931       .  S
Ni1303     O1308   1.924       .  S
C1304      O1314   1.276       .  A
C1304      C1646   1.482       .  S
O1305     Ni1321   1.905       .  S
O1305      C1311   1.275       .  A
O1306      C1311   1.282       .  A
C1307      C1873   1.460       .  S
O1308      C1310   1.270       .  A
O1309     Ni1320   1.909       .  S
C1310      O1316   1.269       .  A
C1310      C1632   1.491       .  S
C1311      C1674   1.488       .  S
H1312      O1313   0.966       .  S
O1313     Ni1321   1.897       .  S
O1313     Ni1315   1.904       .  S
O1313     Ni1320   1.899       .  S
O1314     Ni1315   1.949       .  S
Ni1315     O1319   1.921       .  S
Ni1315     O1317   1.920       .  S
O1316     Ni1321   1.921       .  S
C1318      O1319   1.273       .  A
C1318      C1691   1.483       .  S
O1323     Ni1329   1.944       .  S
O1324     Ni1347   1.922       .  S
O1324      C1333   1.273       .  A
O1325     Ni1329   1.903       .  S
O1325     Ni1347   1.904       .  S
O1325     Ni1341   1.890       .  S
O1325      H1348   0.966       .  S
C1326      O1343   1.276   1_554  A
C1326      C2111   1.489   1_554  S
O1327     Ni1346   1.925       .  S
O1327      C1333   1.275       .  A
O1328     Ni1346   1.928       .  S
O1328      C1330   1.270       .  A
Ni1329     O1332   1.915       .  S
Ni1329     O1334   1.898       .  S
C1330      O1340   1.267       .  A
C1330      C1607   1.494       .  S
O1331     Ni1347   1.914       .  S
O1331      C1337   1.279       .  A
O1332      C1337   1.276       .  A
C1333      C2041   1.477       .  S
O1334      C1336   1.270       .  A
O1335     Ni1346   1.935       .  S
C1336      O1342   1.277       .  A
C1336      C1887   1.476       .  S
C1337      C1663   1.477       .  S
H1338      O1339   0.966       .  S
O1339     Ni1347   1.905       .  S
O1339     Ni1341   1.879       .  S
O1339     Ni1346   1.907       .  S
O1340     Ni1341   1.920       .  S
Ni1341     O1345   1.875       .  S
O1342     Ni1347   1.946       .  S
C1344      C1618   1.478       .  S
O1349     Ni1355   1.941       .  S
O1349      C1370   1.272       .  A
O1350     Ni1373   1.930       .  S
O1350      C1359   1.274       .  A
O1351     Ni1355   1.899       .  S
O1351     Ni1373   1.913       .  S
O1351     Ni1367   1.899       .  S
O1351      H1374   0.966       .  S
C1352      O1369   1.275       .  A
C1352      O1361   1.280       .  A
C1352      C1985   1.489       .  S
O1353     Ni1372   1.927       .  S
O1353      C1359   1.276       .  A
O1354     Ni1372   1.930       .  S
O1354      C1356   1.270       .  A
Ni1355     O1358   1.911       .  S
Ni1355     O1360   1.895       .  S
C1356      O1366   1.264       .  A
C1356      C2027   1.489       .  S
O1357     Ni1373   1.932       .  S
O1357      C1363   1.281       .  A
O1358      C1363   1.276       .  A
C1359      C1912   1.485       .  S
O1360      C1362   1.270       .  A
O1361     Ni1372   1.939       .  S
C1362      O1368   1.277       .  A
C1362      C1579   1.477       .  S
C1363      C1593   1.483       .  S
H1364      O1365   0.966       .  S
O1365     Ni1373   1.913       .  S
O1365     Ni1367   1.888       .  S
O1365     Ni1372   1.909       .  S
O1366     Ni1367   1.910       .  S
Ni1367     O1371   1.891       .  S
Ni1367     O1369   1.897       .  S
O1368     Ni1373   1.946       .  S
C1370      O1371   1.261       .  A
C1370      C1719   1.478       .  S
O1375     Ni1381   1.928       .  S
O1375      C1396   1.273       .  A
O1376     Ni1399   1.884       .  S
O1376      C1385   1.260       .  A
O1377     Ni1381   1.910       .  S
O1377     Ni1399   1.894       .  S
O1377     Ni1393   1.910       .  S
O1377      H1400   0.966       .  S
C1378      O1395   1.279       .  A
C1378      O1387   1.276       .  A
C1378      C1590   1.481       .  S
O1379     Ni1398   1.945       .  S
O1379      C1385   1.272       .  A
O1380     Ni1398   1.897       .  S
O1380      C1382   1.269       .  A
Ni1381     O1384   1.941       .  S
Ni1381     O1386   1.914       .  S
C1382      O1392   1.275       .  A
C1382      C1730   1.471       .  S
O1383     Ni1399   1.898       .  S
O1383      C1389   1.271       .  A
O1384      C1389   1.280       .  A
C1385      C1562   1.476       .  S
O1386      C1388   1.267       .  A
O1387     Ni1398   1.913       .  S
C1388      O1394   1.265       .  A
C1388      C2097   1.481       .  S
C1389      C1621   1.488       .  S
H1390      O1391   0.966       .  S
O1391     Ni1399   1.895       .  S
O1391     Ni1393   1.912       .  S
O1391     Ni1398   1.904       .  S
O1392     Ni1393   1.940       .  S
Ni1393     O1397   1.928       .  S
Ni1393     O1395   1.925       .  S
O1394     Ni1399   1.915       .  S
C1396      O1397   1.274       .  A
C1396      C1649   1.483       .  S
O1401     Ni1407   1.928       .  S
O1401      C1422   1.272       .  A
O1402     Ni1425   1.875       .  S
O1402      C1411   1.262       .  A
O1403     Ni1407   1.909       .  S
O1403     Ni1425   1.882       .  S
O1403     Ni1419   1.909       .  S
O1403      H1426   0.966       .  S
C1404      O1421   1.279       .  A
C1404      O1413   1.274       .  A
C1404      C1548   1.476       .  S
O1405     Ni1424   1.939       .  S
O1405      C1411   1.272       .  A
O1406     Ni1424   1.901       .  S
O1406      C1408   1.270       .  A
Ni1407     O1410   1.940       .  S
Ni1407     O1412   1.920       .  S
C1408      O1418   1.277       .  A
C1408      C2167   1.476       .  S
O1409     Ni1425   1.894       .  S
O1409      C1415   1.274       .  A
O1410      C1415   1.281       .  A
C1411      C1534   1.475       .  S
O1412      C1414   1.268       .  A
O1413     Ni1424   1.909       .  S
C1414      O1420   1.269       .  A
C1414      C1635   1.491       .  S
C1415      C1831   1.478       .  S
H1416      O1417   0.966       .  S
O1417     Ni1425   1.895       .  S
O1417     Ni1419   1.900       .  S
O1417     Ni1424   1.904       .  S
O1418     Ni1419   1.943       .  S
Ni1419     O1423   1.922       .  S
Ni1419     O1421   1.915       .  S
O1420     Ni1425   1.923       .  S
C1422      O1423   1.274       .  A
C1422      C1789   1.475       .  S
O1427     Ni1433   1.947       .  S
O1428     Ni1451   1.921       .  S
O1428      C1437   1.274       .  A
O1429     Ni1433   1.904       .  S
O1429     Ni1451   1.901       .  S
O1429     Ni1445   1.894       .  S
O1429      H1452   0.966       .  S
C1430      O1447   1.276   1_554  A
C1430      C1565   1.488   1_554  S
O1431     Ni1450   1.932       .  S
O1431      C1437   1.275       .  A
O1432     Ni1450   1.924       .  S
O1432      C1434   1.269       .  A
Ni1433     O1436   1.915       .  S
Ni1433     O1438   1.899       .  S
C1434      O1444   1.268       .  A
C1434      C1604   1.493       .  S
O1435     Ni1451   1.913       .  S
O1435      C1441   1.279       .  A
O1436      C1441   1.276       .  A
C1437      C1576   1.481       .  S
O1438      C1440   1.269       .  A
O1439     Ni1450   1.947       .  S
C1440      O1446   1.279       .  A
C1440      C1520   1.478       .  S
C1441      C1551   1.477       .  S
H1442      O1443   0.966       .  S
O1443     Ni1451   1.909       .  S
O1443     Ni1445   1.880       .  S
O1443     Ni1450   1.909       .  S
O1444     Ni1445   1.922       .  S
Ni1445     O1449   1.872       .  S
O1446     Ni1451   1.948       .  S
C1448      C2150   1.482       .  S
O1453     Ni1459   1.938       .  S
O1453      C1474   1.275       .  A
O1454     Ni1477   1.886       .  S
O1454      C1463   1.260       .  A
O1455     Ni1459   1.911       .  S
O1455     Ni1477   1.892       .  S
O1455     Ni1471   1.908       .  S
O1455      H1478   0.966       .  S
C1456      O1473   1.279       .  A
C1456      O1465   1.276       .  A
C1456      C1509   1.485       .  S
O1457     Ni1476   1.939       .  S
O1457      C1463   1.271       .  A
O1458     Ni1476   1.894       .  S
O1458      C1460   1.268       .  A
Ni1459     O1462   1.939       .  S
Ni1459     O1464   1.922       .  S
C1460      O1470   1.278       .  A
C1460      C1688   1.480       .  S
O1461     Ni1477   1.898       .  S
O1461      C1467   1.274       .  A
O1462      C1467   1.281       .  A
C1463      C1943   1.466   1_455  S
O1464      C1466   1.269       .  A
O1465     Ni1476   1.910       .  S
C1466      O1472   1.264       .  A
C1466      C1775   1.477       .  S
C1467      C1744   1.481       .  S
H1468      O1469   0.966       .  S
O1469     Ni1477   1.893       .  S
O1469     Ni1471   1.906       .  S
O1469     Ni1476   1.898       .  S
O1470     Ni1471   1.953       .  S
Ni1471     O1475   1.919       .  S
Ni1471     O1473   1.923       .  S
O1472     Ni1477   1.915       .  S
C1474      O1475   1.273       .  A
C1474      C1705   1.480       .  S
O1479     Ni1485   1.943       .  S
O1479      C1500   1.270       .  A
O1480     Ni1503   1.920       .  S
O1480      C1489   1.272       .  A
O1481     Ni1485   1.909       .  S
O1481     Ni1503   1.909       .  S
O1481     Ni1497   1.897       .  S
O1481      H1504   0.966       .  S
C1482      O1499   1.270       .  A
C1482      O1491   1.280       .  A
C1482      C1537   1.470       .  S
O1483     Ni1502   1.931       .  S
O1483      C1489   1.275       .  A
O1484     Ni1502   1.926       .  S
O1484      C1486   1.269       .  A
Ni1485     O1488   1.913       .  S
Ni1485     O1490   1.900       .  S
C1486      O1496   1.266       .  A
C1486      C1814   1.487       .  S
O1487     Ni1503   1.926       .  S
O1487      C1493   1.280       .  A
O1488      C1493   1.275       .  A
C1489      C1523   1.475       .  S
O1490      C1492   1.269       .  A
O1491     Ni1502   1.940       .  S
C1492      O1498   1.274       .  A
C1492      C1954   1.472       .  S
C1493      C1506   1.486       .  S
H1494      O1495   0.967       .  S
O1495     Ni1503   1.904       .  S
O1495     Ni1497   1.886       .  S
O1495     Ni1502   1.914       .  S
O1496     Ni1497   1.911       .  S
Ni1497     O1501   1.881       .  S
Ni1497     O1499   1.883       .  S
O1498     Ni1503   1.937       .  S
C1500      O1501   1.259       .  A
C1500      C1677   1.468   1_655  S
C1505      C1510   1.398       .  A
C1507      C1508   1.396       .  A
C1508      C1509   1.409   1_655  A
C1508      H1513   1.083       .  S
C1509      C1510   1.411       .  A
C1510      N1511   1.430       .  S
N1511      O1515   1.262       .  A
N1511      O1516   1.262       .  A
N1514      O1518   1.262   1_554  A
C1519      C1524   1.407   1_554  A
C1519      H1526   1.084   1_554  S
C1520      C1521   1.412       .  A
C1521      C1522   1.397       .  A
C1521      N1528   1.429       .  S
C1522      H1527   1.084       .  S
C1523      C1524   1.412       .  A
C1524      N1525   1.429       .  S
N1525      O1529   1.262       .  A
N1525      O1530   1.262       .  A
N1528      O1532   1.262       .  A
N1528      O1531   1.262       .  A
C1533      C1534   1.403       .  A
C1533      C1538   1.386       .  A
C1533      H1540   1.084       .  S
C1534      C1535   1.412       .  A
C1535      C1536   1.404       .  A
C1535      N1542   1.428       .  S
C1536      C1537   1.405       .  A
C1536      H1541   1.084       .  S
C1537      C1538   1.410       .  A
C1538      N1539   1.431       .  S
N1539      O1543   1.262       .  A
N1539      O1544   1.262       .  A
N1542      O1546   1.262       .  A
N1542      O1545   1.262       .  A
C1547      C1548   1.402       .  A
C1547      C1552   1.394       .  A
C1547      H1554   1.084       .  S
C1548      C1549   1.415       .  A
C1549      C1550   1.394       .  A
C1549      N1556   1.429       .  S
C1550      C1551   1.403       .  A
C1550      H1555   1.084       .  S
C1551      C1552   1.414       .  A
C1552      N1553   1.429       .  S
N1553      O1557   1.261       .  A
N1553      O1558   1.262       .  A
N1556      O1560   1.261       .  A
N1556      O1559   1.262       .  A
C1561      C1562   1.406       .  A
C1561      C1566   1.409       .  A
C1561      H1568   1.084       .  S
C1562      C1563   1.409       .  A
C1563      C1564   1.385       .  A
C1563      N1570   1.430       .  S
C1564      C1565   1.405       .  A
C1564      H1569   1.084       .  S
C1565      C1566   1.417       .  A
C1566      N1567   1.429       .  S
N1567      O1571   1.262       .  A
N1570      O1574   1.262       .  A
N1570      O1573   1.262       .  A
C1575      C1576   1.408       .  A
C1575      C1580   1.410       .  A
C1575      H1582   1.084       .  S
C1576      C1577   1.411       .  A
C1577      C1578   1.394       .  A
C1577      N1584   1.430       .  S
C1578      C1579   1.401       .  A
C1578      H1583   1.085       .  S
C1579      C1580   1.410       .  A
C1580      N1581   1.428       .  S
N1581      O1585   1.262       .  A
N1581      O1586   1.262       .  A
N1584      O1588   1.262       .  A
N1584      O1587   1.262       .  A
C1589      C1590   1.408       .  A
C1589      C1594   1.399       .  A
C1589      H1596   1.084       .  S
C1590      C1591   1.408       .  A
C1591      C1592   1.398       .  A
C1591      N1598   1.429       .  S
C1592      C1593   1.409       .  A
C1592      H1597   1.084       .  S
C1593      C1594   1.409       .  A
C1594      N1595   1.429       .  S
N1595      O1599   1.262       .  A
N1595      O1600   1.262       .  A
N1598      O1602   1.262       .  A
N1598      O1601   1.262       .  A
C1603      C1604   1.408       .  A
C1603      C1608   1.406       .  A
C1603      H1610   1.084       .  S
C1604      C1605   1.412       .  A
C1605      C1606   1.405       .  A
C1605      N1612   1.428       .  S
C1606      C1607   1.408       .  A
C1606      H1611   1.084       .  S
C1607      C1608   1.413       .  A
C1608      N1609   1.428       .  S
N1609      O1613   1.262       .  A
N1609      O1614   1.262       .  A
N1612      O1616   1.262       .  A
N1612      O1615   1.262       .  A
C1617      C1618   1.400       .  A
C1617      C1622   1.391       .  A
C1617      H1624   1.085       .  S
C1618      C1619   1.411       .  A
C1619      C1620   1.407       .  A
C1619      N1626   1.429       .  S
C1620      C1621   1.409       .  A
C1620      H1625   1.083       .  S
C1621      C1622   1.416       .  A
C1622      N1623   1.429       .  S
N1623      O1627   1.262       .  A
N1623      O1628   1.261       .  A
N1626      O1630   1.262       .  A
N1626      O1629   1.262       .  A
C1631      C1632   1.406       .  A
C1631      C1636   1.405       .  A
C1631      H1638   1.084       .  S
C1632      C1633   1.414   1_455  A
C1633      C1634   1.404       .  A
C1633      N1640   1.429       .  S
C1634      C1635   1.407       .  A
C1634      H1639   1.084       .  S
C1635      C1636   1.413   1_655  A
C1636      N1637   1.429       .  S
N1637      O1641   1.262       .  A
N1637      O1642   1.262       .  A
N1640      O1644   1.262       .  A
N1640      O1643   1.262       .  A
C1645      C1646   1.402       .  A
C1645      C1650   1.396       .  A
C1645      H1652   1.085       .  S
C1646      C1647   1.412       .  A
C1647      C1648   1.411       .  A
C1647      N1654   1.428       .  S
C1648      C1649   1.407       .  A
C1648      H1653   1.084       .  S
C1649      C1650   1.411       .  A
C1650      N1651   1.430       .  S
N1651      O1655   1.262       .  A
N1651      O1656   1.262       .  A
N1654      O1658   1.262       .  A
N1654      O1657   1.262       .  A
C1659      C1660   1.402       .  A
C1659      C1664   1.397       .  A
C1659      H1666   1.084       .  S
C1660      C1661   1.414       .  A
C1661      C1662   1.395       .  A
C1661      N1668   1.430       .  S
C1662      C1663   1.402       .  A
C1662      H1667   1.084       .  S
C1663      C1664   1.415       .  A
C1664      N1665   1.429       .  S
N1665      O1669   1.262       .  A
N1665      O1670   1.262       .  A
N1668      O1672   1.262       .  A
N1668      O1671   1.262       .  A
C1673      C1674   1.411       .  A
C1673      C1678   1.402       .  A
C1673      H1680   1.083       .  S
C1674      C1675   1.418       .  A
C1675      C1676   1.393       .  A
C1675      N1682   1.430       .  S
C1676      C1677   1.399       .  A
C1676      H1681   1.085       .  S
C1677      C1678   1.406       .  A
C1678      N1679   1.428   1_455  S
N1679      O1683   1.262       .  A
N1679      O1684   1.262       .  A
N1682      O1686   1.262       .  A
N1682      O1685   1.262       .  A
C1687      C1688   1.403       .  A
C1687      C1692   1.397       .  A
C1687      H1694   1.085       .  S
C1688      C1689   1.411       .  A
C1689      C1690   1.410       .  A
C1689      N1696   1.428       .  S
C1690      C1691   1.407       .  A
C1690      H1695   1.084       .  S
C1691      C1692   1.410       .  A
C1692      N1693   1.430       .  S
N1693      O1697   1.262       .  A
N1693      O1698   1.262       .  A
N1696      O1700   1.262       .  A
N1696      O1699   1.262       .  A
C1701      H1708   1.084       .  S
C1702      C1703   1.411       .  A
C1703      C1704   1.407       .  A
C1703      N1710   1.428       .  S
C1704      C1705   1.405       .  A
C1704      H1709   1.084       .  S
C1705      C1706   1.410       .  A
N1707      O1711   1.262   1_556  A
N1710      O1714   1.262       .  A
N1710      O1713   1.262       .  A
C1715      C1716   1.408       .  A
C1715      C1720   1.392       .  A
C1715      H1722   1.084       .  S
C1716      C1717   1.417       .  A
C1717      C1718   1.407       .  A
C1717      N1724   1.428       .  S
C1718      C1719   1.404       .  A
C1718      H1723   1.084       .  S
C1719      C1720   1.409       .  A
C1720      N1721   1.430       .  S
N1721      O1725   1.262       .  A
N1721      O1726   1.262       .  A
N1724      O1728   1.262       .  A
N1724      O1727   1.262       .  A
C1729      C1730   1.402       .  A
C1729      C1734   1.397       .  A
C1729      H1736   1.085       .  S
C1730      C1731   1.410       .  A
C1731      C1732   1.404       .  A
C1731      N1738   1.428       .  S
C1732      C1733   1.403       .  A
C1732      H1737   1.084       .  S
C1733      C1734   1.410       .  A
C1734      N1735   1.430       .  S
N1735      O1739   1.262       .  A
N1735      O1740   1.262       .  A
N1738      O1742   1.261       .  A
N1738      O1741   1.262       .  A
C1743      C1744   1.407       .  A
C1743      C1748   1.406       .  A
C1743      H1750   1.084       .  S
C1744      C1745   1.413       .  A
C1745      C1746   1.391       .  A
C1745      N1752   1.431       .  S
C1746      C1747   1.404       .  A
C1746      H1751   1.084       .  S
C1747      C1748   1.413       .  A
C1748      N1749   1.429       .  S
N1749      O1753   1.262       .  A
N1749      O1754   1.262       .  A
N1752      O1756   1.262       .  A
N1752      O1755   1.262       .  A
C1757      C1758   1.408       .  A
C1757      C1762   1.397       .  A
C1757      H1764   1.083       .  S
C1758      C1759   1.413       .  A
C1759      C1760   1.397       .  A
C1759      N1766   1.429       .  S
C1760      C1761   1.407       .  A
C1760      H1765   1.083       .  S
C1761      C1762   1.414       .  A
C1762      N1763   1.430       .  S
N1763      O1767   1.262       .  A
N1763      O1768   1.262       .  A
N1766      O1770   1.262       .  A
N1766      O1769   1.262       .  A
C1771      C1772   1.406       .  A
C1771      C1776   1.405       .  A
C1771      H1778   1.084       .  S
C1772      C1773   1.418   1_655  A
C1773      C1774   1.401       .  A
C1773      N1780   1.430       .  S
C1774      C1775   1.400       .  A
C1774      H1779   1.084       .  S
C1775      C1776   1.410   1_455  A
C1776      N1777   1.428       .  S
N1777      O1781   1.262       .  A
N1777      O1782   1.262       .  A
N1780      O1784   1.262       .  A
N1780      O1783   1.262       .  A
C1785      C1786   1.401   1_545  A
C1785      C1790   1.399       .  A
C1785      H1792   1.084       .  S
C1786      C1787   1.411       .  A
C1787      C1788   1.406   1_565  A
C1787      N1794   1.429       .  S
C1788      C1789   1.403       .  A
C1788      H1793   1.084       .  S
C1789      C1790   1.410       .  A
C1790      N1791   1.429       .  S
N1791      O1795   1.262       .  A
N1791      O1796   1.262       .  A
N1794      O1798   1.261       .  A
N1794      O1797   1.262       .  A
C1799      C1800   1.404       .  A
C1799      C1804   1.400       .  A
C1799      H1806   1.084       .  S
C1800      C1801   1.410   1_655  A
C1801      C1802   1.399       .  A
C1801      N1808   1.428       .  S
C1802      C1803   1.400       .  A
C1802      H1807   1.084       .  S
C1803      C1804   1.409   1_455  A
C1804      N1805   1.429       .  S
N1805      O1809   1.262       .  A
N1805      O1810   1.262       .  A
N1808      O1812   1.262       .  A
N1808      O1811   1.262       .  A
C1813      C1814   1.407   1_455  A
C1813      C1818   1.399       .  A
C1813      H1820   1.084       .  S
C1814      C1815   1.412       .  A
C1815      C1816   1.405       .  A
C1815      N1822   1.428       .  S
C1816      C1817   1.406   1_655  A
C1816      H1821   1.084       .  S
C1817      C1818   1.407       .  A
C1818      N1819   1.427       .  S
N1819      O1823   1.262       .  A
N1819      O1824   1.262       .  A
N1822      O1826   1.262       .  A
N1822      O1825   1.262       .  A
C1827      C1828   1.407       .  A
C1827      C1832   1.405       .  A
C1827      H1834   1.084       .  S
C1828      C1829   1.414       .  A
C1829      C1830   1.389       .  A
C1829      N1836   1.431       .  S
C1830      C1831   1.403       .  A
C1830      H1835   1.085       .  S
C1831      C1832   1.411       .  A
C1832      N1833   1.428       .  S
N1833      O1837   1.262       .  A
N1833      O1838   1.262       .  A
N1836      O1840   1.262       .  A
N1836      O1839   1.262   1_655  A
C1841      C1842   1.399       .  A
C1841      C1846   1.395       .  A
C1841      H1848   1.085       .  S
C1842      C1843   1.410       .  A
C1843      C1844   1.406       .  A
C1843      N1850   1.429   1_565  S
C1844      C1845   1.404       .  A
C1844      H1849   1.084       .  S
C1845      C1846   1.412       .  A
C1846      N1847   1.430       .  S
N1847      O1851   1.261       .  A
N1847      O1852   1.262       .  A
N1850      O1854   1.262       .  A
N1850      O1853   1.262       .  A
C1855      C1860   1.398       .  A
C1855      H1862   1.084   1_565  S
C1856      C1857   1.414   1_445  A
C1857      N1864   1.429   1_565  S
C1858      C1859   1.404       .  A
C1859      C1860   1.418   1_655  A
C1860      N1861   1.429       .  S
N1861      O1865   1.262       .  A
N1861      O1866   1.262       .  A
N1864      O1868   1.262       .  A
N1864      O1867   1.262   1_545  A
C1869      C1870   1.409       .  A
C1869      C1874   1.392       .  A
C1869      H1876   1.084       .  S
C1870      C1871   1.416       .  A
C1871      C1872   1.401       .  A
C1871      N1878   1.429       .  S
C1872      C1873   1.399       .  A
C1872      H1877   1.084       .  S
C1873      C1874   1.402       .  A
C1874      N1875   1.430       .  S
N1875      O1879   1.262       .  A
N1875      O1880   1.262       .  A
N1878      O1882   1.261       .  A
N1878      O1881   1.262       .  A
C1883      C1884   1.404       .  A
C1883      C1888   1.404   1_556  A
C1883      H1890   1.084       .  S
C1885      C1886   1.396       .  A
C1885      N1892   1.429       .  S
C1886      C1887   1.402       .  A
C1886      H1891   1.085       .  S
C1888      N1889   1.429   1_554  S
N1889      O1893   1.262   1_556  A
N1892      O1896   1.262       .  A
N1892      O1895   1.262       .  A
C1897      C1898   1.404   1_455  A
C1897      C1902   1.401       .  A
C1897      H1904   1.084       .  S
C1898      C1899   1.414       .  A
C1899      C1900   1.398       .  A
C1899      N1906   1.429       .  S
C1900      C1901   1.399   1_655  A
C1900      H1905   1.084       .  S
C1901      C1902   1.409       .  A
C1902      N1903   1.428       .  S
N1903      O1907   1.262       .  A
N1903      O1908   1.262       .  A
N1906      O1910   1.261       .  A
N1906      O1909   1.262       .  A
C1911      C1912   1.400       .  A
C1911      C1916   1.393       .  A
C1911      H1918   1.085       .  S
C1912      C1913   1.414       .  A
C1913      C1914   1.413       .  A
C1913      N1920   1.428       .  S
C1914      C1915   1.407       .  A
C1914      H1919   1.084       .  S
C1915      C1916   1.413       .  A
C1916      N1917   1.429       .  S
N1917      O1921   1.262       .  A
N1917      O1922   1.261       .  A
N1920      O1924   1.262       .  A
N1920      O1923   1.262       .  A
C1925      C1926   1.400       .  A
C1925      C1930   1.400       .  A
C1925      H1932   1.084       .  S
C1926      C1927   1.405       .  A
C1927      C1928   1.392       .  A
C1927      N1934   1.430       .  S
C1928      C1929   1.404       .  A
C1928      H1933   1.084       .  S
C1929      C1930   1.414       .  A
C1930      N1931   1.429       .  S
N1931      O1935   1.262       .  A
N1931      O1936   1.262       .  A
N1934      O1938   1.262       .  A
N1934      O1937   1.262       .  A
C1939      C1940   1.408       .  A
C1939      C1944   1.391       .  A
C1939      H1946   1.084       .  S
C1940      C1941   1.420       .  A
C1941      C1942   1.405       .  A
C1941      N1948   1.429       .  S
C1942      C1943   1.400       .  A
C1942      H1947   1.084   1_655  S
C1943      C1944   1.405       .  A
C1944      N1945   1.430       .  S
N1945      O1949   1.262       .  A
N1945      O1950   1.262       .  A
N1948      O1952   1.262   1_655  A
N1948      O1951   1.262       .  A
C1953      C1954   1.400       .  A
C1953      C1958   1.396       .  A
C1953      H1960   1.085       .  S
C1954      C1955   1.410       .  A
C1955      C1956   1.407       .  A
C1955      N1962   1.428       .  S
C1956      C1957   1.405       .  A
C1956      H1961   1.084       .  S
C1957      C1958   1.411       .  A
C1958      N1959   1.430       .  S
N1959      O1963   1.262       .  A
N1959      O1964   1.262       .  A
N1962      O1966   1.262       .  A
N1962      O1965   1.262       .  A
C1967      C1968   1.408       .  A
C1967      C1972   1.401       .  A
C1967      H1974   1.084       .  S
C1968      C1969   1.413       .  A
C1969      C1970   1.400       .  A
C1969      N1976   1.430       .  S
C1970      C1971   1.406       .  A
C1970      H1975   1.084       .  S
C1971      C1972   1.409       .  A
C1972      N1973   1.429       .  S
N1973      O1977   1.262       .  A
N1973      O1978   1.262       .  A
N1976      O1980   1.262       .  A
N1976      O1979   1.262       .  A
C1981      C1982   1.402       .  A
C1981      C1986   1.405       .  A
C1981      H1988   1.084       .  S
C1982      C1983   1.408       .  A
C1983      C1984   1.391       .  A
C1983      N1990   1.431       .  S
C1984      C1985   1.408       .  A
C1984      H1989   1.084       .  S
C1985      C1986   1.418       .  A
C1986      N1987   1.428       .  S
N1987      O1991   1.262       .  A
N1987      O1992   1.262       .  A
N1990      O1994   1.262       .  A
N1990      O1993   1.262       .  A
C1995      C1996   1.404       .  A
C1995      C2000   1.410       .  A
C1995      H2002   1.084       .  S
C1997      C1998   1.399   1_556  A
C1997      N2004   1.427       .  S
C1998      H2003   1.084   1_554  S
C1999      C2000   1.413       .  A
C2000      N2001   1.427       .  S
N2001      O2005   1.262       .  A
N2001      O2006   1.262       .  A
N2004      O2008   1.261       .  A
N2004      O2007   1.262       .  A
C2009      C2010   1.402       .  A
C2009      C2014   1.390       .  A
C2009      H2016   1.084       .  S
C2010      C2011   1.418       .  A
C2011      C2012   1.398       .  A
C2011      N2018   1.429       .  S
C2012      C2013   1.401       .  A
C2012      H2017   1.084       .  S
C2013      C2014   1.413       .  A
C2014      N2015   1.429       .  S
N2015      O2019   1.261       .  A
N2015      O2020   1.262       .  A
N2018      O2022   1.261       .  A
N2018      O2021   1.262       .  A
C2023      C2024   1.409       .  A
C2023      C2028   1.406       .  A
C2023      H2030   1.084       .  S
C2024      C2025   1.410       .  A
C2025      C2026   1.403       .  A
C2025      N2032   1.428       .  S
C2026      C2027   1.408       .  A
C2026      H2031   1.084       .  S
C2027      C2028   1.412       .  A
C2028      N2029   1.430       .  S
N2029      O2033   1.262       .  A
N2029      O2034   1.262       .  A
N2032      O2036   1.262       .  A
N2032      O2035   1.262       .  A
C2037      C2038   1.404   1_565  A
C2037      C2042   1.408   1_565  A
C2037      H2044   1.084       .  S
C2038      C2039   1.411       .  A
C2039      C2040   1.394       .  A
C2039      N2046   1.430       .  S
C2040      C2041   1.401       .  A
C2040      H2045   1.084       .  S
C2041      C2042   1.413       .  A
C2042      N2043   1.428       .  S
N2043      O2047   1.262       .  A
N2043      O2048   1.262       .  A
N2046      O2050   1.262       .  A
N2046      O2049   1.262       .  A
C2051      C2052   1.403       .  A
C2051      C2056   1.408       .  A
C2051      H2058   1.084       .  S
C2052      C2053   1.408       .  A
C2053      C2054   1.392       .  A
C2053      N2060   1.430       .  S
C2054      C2055   1.408       .  A
C2054      H2059   1.084       .  S
C2055      C2056   1.419       .  A
C2056      N2057   1.429       .  S
N2057      O2061   1.262       .  A
N2057      O2062   1.262       .  A
N2060      O2064   1.262       .  A
N2060      O2063   1.262       .  A
C2065      C2066   1.402       .  A
C2065      C2070   1.404       .  A
C2065      H2072   1.084       .  S
C2066      C2067   1.408       .  A
C2067      C2068   1.389       .  A
C2067      N2074   1.431       .  S
C2068      C2069   1.406       .  A
C2068      H2073   1.084       .  S
C2069      C2070   1.418       .  A
C2070      N2071   1.429       .  S
N2071      O2075   1.262       .  A
N2071      O2076   1.262       .  A
N2074      O2078   1.262       .  A
N2074      O2077   1.262       .  A
C2079      C2080   1.402       .  A
C2079      C2084   1.397       .  A
C2079      H2086   1.084       .  S
C2080      C2081   1.413       .  A
C2081      C2082   1.409       .  A
C2081      N2088   1.428       .  S
C2082      C2083   1.404       .  A
C2082      H2087   1.084       .  S
C2083      C2084   1.410       .  A
C2084      N2085   1.430       .  S
N2085      O2089   1.262       .  A
N2085      O2090   1.262       .  A
N2088      O2092   1.262       .  A
N2088      O2091   1.262       .  A
C2093      C2094   1.403       .  A
C2093      C2098   1.402       .  A
C2093      H2100   1.084       .  S
C2094      C2095   1.413       .  A
C2095      C2096   1.400       .  A
C2095      N2102   1.429       .  S
C2096      C2097   1.402       .  A
C2096      H2101   1.084       .  S
C2097      C2098   1.414       .  A
C2098      N2099   1.430       .  S
N2099      O2103   1.260       .  A
N2099      O2104   1.261       .  A
N2102      O2106   1.261       .  A
N2102      O2105   1.260       .  A
C2107      C2108   1.403       .  A
C2107      C2112   1.406       .  A
C2107      H2114   1.084       .  S
C2108      C2109   1.407       .  A
C2109      C2110   1.389       .  A
C2109      N2116   1.428       .  S
C2110      C2111   1.406       .  A
C2110      H2115   1.084       .  S
C2111      C2112   1.418       .  A
N2113      O2117   1.262       .  A
N2113      O2118   1.262       .  A
N2116      O2120   1.262       .  A
N2116      O2119   1.262       .  A
C2121      C2122   1.402       .  A
C2121      C2126   1.396       .  A
C2121      H2128   1.085       .  S
C2122      C2123   1.410       .  A
C2123      C2124   1.407       .  A
C2123      N2130   1.428   1_565  S
C2124      C2125   1.405       .  A
C2124      H2129   1.084       .  S
C2125      C2126   1.411       .  A
C2126      N2127   1.430       .  S
N2127      O2131   1.262       .  A
N2127      O2132   1.262       .  A
N2130      O2134   1.262       .  A
N2130      O2133   1.262       .  A
C2135      C2136   1.408   1_565  A
C2135      C2140   1.398       .  A
C2135      H2142   1.084       .  S
C2136      C2137   1.411   1_545  A
C2137      C2138   1.397       .  A
C2137      N2144   1.429       .  S
C2138      C2139   1.408       .  A
C2138      H2143   1.084       .  S
C2139      C2140   1.411       .  A
C2140      N2141   1.429       .  S
N2141      O2145   1.262       .  A
N2141      O2146   1.262       .  A
N2144      O2148   1.262   1_565  A
N2144      O2147   1.262       .  A
C2149      C2150   1.406       .  A
C2149      C2154   1.390       .  A
C2149      H2156   1.084       .  S
C2150      C2151   1.412       .  A
C2151      C2152   1.404       .  A
C2151      N2158   1.429       .  S
C2152      C2153   1.407       .  A
C2152      H2157   1.084       .  S
C2153      C2154   1.410       .  A
C2154      N2155   1.430       .  S
N2155      O2159   1.262       .  A
N2155      O2160   1.262       .  A
N2158      O2162   1.262       .  A
N2158      O2161   1.262       .  A
C2163      C2164   1.400       .  A
C2163      C2168   1.396       .  A
C2163      H2170   1.084       .  S
C2164      C2165   1.411       .  A
C2165      C2166   1.407       .  A
C2165      N2172   1.429       .  S
C2166      C2167   1.404       .  A
C2166      H2171   1.084       .  S
C2167      C2168   1.410       .  A
C2168      N2169   1.429       .  S
N2169      O2173   1.262       .  A
N2169      O2174   1.262       .  A
N2172      O2176   1.262       .  A
N2172      O2175   1.262       .  A
