geometry optimzed in LAMMPS
_audit_creation_date              2020-12-01 
_audit_creation_method            'lammps2cif' 
_symmetry_space_group_name_H-M    'P1' 
_symmetry_Int_Tables_number       1 
_symmetry_cell_setting            triclinic 
loop_ 
_symmetry_equiv_pos_as_xyz 
  x,y,z 
_cell_length_a                    35.07988002 
_cell_length_b                    34.99174817080579 
_cell_length_c                    192.31213578284218 
_cell_angle_alpha                 90.34461709198351 
_cell_angle_beta                  89.879371569673 
_cell_angle_gamma                 120.02731552471846 
loop_ 
_atom_site_label 
_atom_site_type_symbol 
_atom_site_fract_x 
_atom_site_fract_y 
_atom_site_fract_z 
_atom_site_charge 
Zr1        Zr  0.73949572  0.19257486  0.61597237     2.17500
O2          O  0.75901841  0.24245272  0.60611474    -0.51900
O3          O  0.66831381  0.18578010  0.61851113    -0.75100
O4          O  0.70014038  0.15307982  0.60550855    -0.81900
O5          O  0.80554320  0.28705212  0.62851541    -0.83700
O6          O  0.69764380  0.08690760  0.60505398    -0.79300
O7          O  0.76309446  0.26939410  0.61881427    -0.90900
O8          O  0.64062901  0.13933002  0.62768877    -0.76900
O9          O  0.69733419  0.11621935  0.61882115    -0.86400
O10         O  0.73207365  0.18925890  0.62830069    -0.86100
O11         O  0.78097925  0.15944191  0.61175397    -0.72800
O12         O  0.81298602  0.22716666  0.62049295    -0.85000
Zr13       Zr  0.80468305  0.11491115  0.63209873     2.26400
Zr14       Zr  0.73917771  0.08324048  0.61498916     2.06300
Zr15       Zr  0.80500692  0.22269116  0.63281909     2.10000
Zr16       Zr  0.68991011  0.11300595  0.63108116     1.78800
O17         O  0.87865242  0.28482465  0.63486292    -0.93800
O18         O  0.62330743  0.04590526  0.62750203    -0.41600
O19         O  0.76207202  0.14692077  0.63600240    -0.78200
O20         O  0.73072108  0.07808006  0.62741564    -0.96900
O21         O  0.81196149  0.11707013  0.61974916    -0.90200
O22         O  0.84757556  0.19069486  0.62906471    -0.93000
C23         C  0.63868816  0.16502377  0.62314588     1.00700
C24         C  0.78771279  0.29674870  0.62355323     1.13700
C25         C  0.68840649  0.11554915  0.60261895     1.04400
O26         O  0.67151733  0.01204721  0.61449791    -0.95200
O27         O  0.75462342  0.02491970  0.61805854    -0.90900
O28         O  0.78703937  0.04120970  0.62871002    -0.84100
C29         C  0.77145203  0.01634510  0.62333932     1.11100
O30         O  0.87904655  0.24486838  0.60710482    -0.97200
Zr31       Zr  0.85337208  0.19267618  0.61670441     1.88900
O32         O  0.88157444  0.13416305  0.63070054    -0.73800
O33         O  0.76919439  0.06999625  0.60439905    -0.53100
O34         O  0.86831672  0.16160896  0.60638329    -0.97700
O35         O  0.91876908  0.26326184  0.61938992    -0.55000
O36         O  0.90632218  0.17307349  0.62070869    -0.74300
C37         C  0.91109022  0.15380045  0.62600210     0.98000
O38         O  0.80913101  0.07214468  0.64173376    -0.63100
O39         O  0.77231708  0.24961622  0.64133459    -0.57900
O40         O  0.80963922  0.13912825  0.64422317    -0.94600
O41         O  0.82697612  0.21089507  0.64408870    -0.93100
O42         O  0.67174648  0.13622816  0.64195858    -0.93400
O43         O  0.66263352  0.05893304  0.64041400    -0.92200
C44         C  0.82030986  0.17604142  0.64726119     1.16900
H45         H  0.71827743  0.20550540  0.62996597     0.32800
H46         H  0.71496009  0.04748599  0.62879230     0.43700
H47         H  0.87587861  0.20503414  0.63135042     0.37200
H48         H  0.78344040  0.16184568  0.60675119     0.33700
H49         H  0.59890342  0.04865643  0.62956881     0.25500
H50         H  0.79176317  0.06295040  0.60600200     0.31400
H51         H  0.86545544  0.13338815  0.60794762     0.37300
H52         H  0.63985578  0.12584410  0.64162776     0.31800
H53         H  0.75537818  0.22440772  0.64449192     0.30600
H54         H  0.87421080  0.30477956  0.63800530     0.32300
H55         H  0.93295591  0.25753718  0.62337990     0.31300
H56         H  0.68115971  0.04497123  0.64022671     0.35300
H57         H  0.77957428  0.04552148  0.64207763     0.28000
H58         H  0.73073052  0.23713848  0.60413364     0.32200
H59         H  0.90825987  0.24910368  0.60581466     0.35100
H60         H  0.79736078  0.27148622  0.64417651     0.27700
H61         H  0.82888156  0.06120041  0.64016553     0.40600
H62         H  0.67345690  0.99853780  0.61006912     0.30600
H63         H  0.62069822  0.04908517  0.62244076     0.38300
H64         H  0.90720245  0.28167601  0.62135066     0.30100
H65         H  0.74515634  0.04168898  0.60254487     0.30200
H66         H  0.77125542  0.23081941  0.60258666     0.30400
Zr67       Zr  0.79846276  0.23265354  0.70208360     2.17500
O68         O  0.80868524  0.28603280  0.69310597    -0.51900
O69         O  0.72032402  0.20825597  0.70345556    -0.75100
O70         O  0.78062432  0.20043242  0.69040130    -0.81900
O71         O  0.84909167  0.32714343  0.71523465    -0.83700
O72         O  0.77259896  0.13189209  0.69092809    -0.79300
O73         O  0.80989290  0.30508680  0.70515762    -0.90900
O74         O  0.69642051  0.16697955  0.71324838    -0.76900
O75         O  0.75986368  0.15708024  0.70539435    -0.86400
O76         O  0.79145152  0.23145277  0.71443441    -0.86100
O77         O  0.84516889  0.20448141  0.69826246    -0.72800
O78         O  0.87221582  0.27284201  0.70665016    -0.85000
Zr79       Zr  0.87223915  0.16430350  0.71858124     2.26400
Zr80       Zr  0.80600817  0.12873690  0.70172838     2.06300
Zr81       Zr  0.86457182  0.26996505  0.71901211     2.10000
Zr82       Zr  0.75459662  0.15621788  0.71774945     1.78800
O83         O  0.93026222  0.34274196  0.71936974    -0.93800
O84         O  0.69233781  0.08217403  0.71591163    -0.41600
O85         O  0.82741206  0.19429355  0.72252745    -0.78200
O86         O  0.79824940  0.12497468  0.71409644    -0.96900
O87         O  0.87915509  0.16667334  0.70625371    -0.90200
O88         O  0.90994735  0.24040697  0.71537971    -0.93000
C89         C  0.69048568  0.18576785  0.70799013     1.00700
C90         C  0.82888562  0.33292905  0.71013049     1.13700
C91         C  0.77277067  0.16365425  0.68762720     1.04400
O92         O  0.73622712  0.05975452  0.70084719    -0.95200
O93         O  0.81946568  0.07109020  0.70558238    -0.90900
O94         O  0.85572239  0.08866377  0.71593473    -0.84100
C95         C  0.83670908  0.06231466  0.71075760     1.11100
O96         O  0.93647738  0.29279527  0.69334816    -0.97200
Zr97       Zr  0.91720997  0.24244590  0.70313772     1.88900
O98         O  0.94421310  0.17392720  0.71558255    -0.73800
O99         O  0.83840320  0.11057577  0.69192063    -0.53100
O100        O  0.93810266  0.21686603  0.69277978    -0.97700
O101        O  0.98033843  0.31449919  0.70591317    -0.55000
O102        O  0.97077057  0.22165279  0.70653004    -0.74300
C103        C  0.97361893  0.19587985  0.71095645     0.98000
O104        O  0.85520926  0.12043837  0.72915600    -0.63100
O105        O  0.82926906  0.28220672  0.72902500    -0.57900
O106        O  0.91149845  0.20777255  0.72886319    -0.94600
O107        O  0.90660392  0.27028367  0.72909796    -0.93100
O108        O  0.73671683  0.18678788  0.72781724    -0.93400
O109        O  0.73496501  0.10914956  0.72794990    -0.92200
C110        C  0.91953936  0.24472703  0.73163547     1.16900
H111        H  0.77487246  0.24528172  0.71591855     0.32800
H112        H  0.78356597  0.09458448  0.71558993     0.43700
H113        H  0.93873572  0.25612602  0.71750352     0.37200
H114        H  0.84997847  0.20689528  0.69330491     0.33700
H115        H  0.66737249  0.08218629  0.71832400     0.25500
H116        H  0.85985496  0.10333091  0.69397545     0.31400
H117        H  0.92465324  0.18461193  0.69340832     0.37300
H118        H  0.70418788  0.16968745  0.72812402     0.31800
H119        H  0.82671610  0.26033944  0.73251138     0.30600
H120        H  0.92721290  0.35660817  0.72367869     0.32300
H121        H  0.99372467  0.31005410  0.71013300     0.31300
H122        H  0.75232110  0.09401329  0.72752026     0.35300
H123        H  0.84450548  0.13461349  0.73249534     0.28000
H124        H  0.78041172  0.27329811  0.69055087     0.32200
H125        H  0.96742330  0.30201343  0.69219712     0.35100
H126        H  0.85182668  0.31106239  0.73095375     0.27700
H127        H  0.82849727  0.09197666  0.72803925     0.40600
H128        H  0.74285424  0.04006540  0.69801518     0.30600
H129        H  0.68522051  0.08096407  0.71090739     0.38300
H130        H  0.96737169  0.33247200  0.70750561     0.30100
H131        H  0.81443292  0.08204380  0.69012037     0.30200
H132        H  0.82989626  0.28545939  0.68975906     0.30400
Zr133      Zr  0.77459100  0.60585849  0.61410849     2.17500
O134        O  0.72219175  0.57572771  0.60452021    -0.51900
O135        O  0.78078824  0.54086801  0.61591893    -0.75100
O136        O  0.81188152  0.60348912  0.60350510    -0.81900
O137        O  0.68696106  0.57812947  0.62788233    -0.83700
O138        O  0.87905087  0.66559974  0.60276557    -0.79300
O139        O  0.69773258  0.55578253  0.61730539    -0.90900
O140        O  0.83414979  0.55888923  0.62401857    -0.76900
O141        O  0.85156314  0.63857999  0.61621606    -0.86400
O142        O  0.78239469  0.60030099  0.62632273    -0.86100
O143        O  0.80761917  0.68052810  0.61000062    -0.72800
O144        O  0.74328564  0.64499340  0.61969318    -0.85000
Zr145      Zr  0.86116856  0.74903929  0.63031298     2.26400
Zr146      Zr  0.88484912  0.71359390  0.61257829     2.06300
Zr147      Zr  0.75360519  0.64167300  0.63189323     2.10000
Zr148      Zr  0.85935071  0.63312627  0.62831043     1.78800
O149        O  0.69897454  0.66194764  0.63522646    -0.93800
O150        O  0.92466341  0.63107736  0.62454416    -0.41600
O151        O  0.83051290  0.67410214  0.63393298    -0.78200
O152        O  0.89375580  0.70938956  0.62487364    -0.96900
O153        O  0.85351477  0.75334954  0.61804093    -0.90200
O154        O  0.78409455  0.71636798  0.62819263    -0.93000
C155        C  0.80526610  0.53181818  0.61969756     1.00700
C156        C  0.67352135  0.55234840  0.62258306     1.13700
C157        C  0.84933395  0.62734330  0.60051109     1.04400
O158        O  0.95491114  0.71587229  0.61114118    -0.95200
O159        O  0.94741237  0.78570035  0.61571352    -0.90900
O160        O  0.93510589  0.80234058  0.62661653    -0.84100
C161        C  0.95885607  0.81081254  0.62113904     1.11100
O162        O  0.71852151  0.68649469  0.60708686    -0.97200
Zr163      Zr  0.77657667  0.71931772  0.61585013     1.88900
O164        O  0.84028981  0.80656852  0.62962991    -0.73800
O165        O  0.89408303  0.75720409  0.60223525    -0.53100
O166        O  0.80217221  0.76608665  0.60558425    -0.97700
O167        O  0.70826366  0.71786231  0.61889403    -0.55000
O168        O  0.79726890  0.79148800  0.62007629    -0.74300
C169        C  0.81824972  0.81581260  0.62527090     0.98000
O170        O  0.91511264  0.80370637  0.63832074    -0.63100
O171        O  0.72538075  0.58613465  0.64102918    -0.57900
O172        O  0.84473407  0.73013279  0.64276887    -0.94600
O173        O  0.77934546  0.66656277  0.64359283    -0.93100
O174        O  0.83265634  0.58665532  0.63858135    -0.93400
O175        O  0.91501713  0.65945509  0.63741881    -0.92200
C176        C  0.81386692  0.69868525  0.64633244     1.16900
H177        H  0.76652589  0.57002395  0.62788415     0.32800
H178        H  0.92470165  0.72331147  0.62603779     0.43700
H179        H  0.77117566  0.73087097  0.63075671     0.37200
H180        H  0.80325869  0.68065245  0.60504906     0.33700
H181        H  0.92338885  0.60591298  0.62708077     0.25500
H182        H  0.89058727  0.78208491  0.60391076     0.31400
H183        H  0.79143518  0.78723243  0.60618973     0.37300
H184        H  0.81788415  0.59930215  0.64138508     0.31800
H185        H  0.69758551  0.58437109  0.64256522     0.30600
H186        H  0.70846200  0.67579030  0.63987800     0.32300
H187        H  0.71414177  0.73367234  0.62339862     0.31300
H188        H  0.90680785  0.67647473  0.64061056     0.35300
H189        H  0.89837868  0.81182160  0.64157802     0.28000
H190        H  0.72508503  0.55086611  0.60265149     0.32200
H191        H  0.71774235  0.71146139  0.60483375     0.35100
H192        H  0.71617408  0.55755168  0.63868478     0.27700
H193        H  0.92611934  0.78774836  0.64116931     0.40600
H194        H  0.95956402  0.70466735  0.61558538     0.30600
H195        H  0.91868061  0.62096941  0.61964101     0.38300
H196        H  0.68735763  0.68666105  0.62005649     0.30100
H197        H  0.92576463  0.77085682  0.60109139     0.30200
H198        H  0.73445946  0.59853395  0.60085612     0.30400
Zr199      Zr  0.74107144  0.60178922  0.70210997     2.17500
O200        O  0.68581566  0.56269048  0.69309876    -0.51900
O201        O  0.76160743  0.54394389  0.70301061    -0.75100
O202        O  0.77227852  0.61639422  0.69025892    -0.81900
O203        O  0.64896566  0.55778811  0.71568593    -0.83700
O204        O  0.83367891  0.68427346  0.69019472    -0.79300
O205        O  0.66821408  0.54096936  0.70530005    -0.90900
O206        O  0.80770200  0.56163580  0.71223489    -0.76900
O207        O  0.81738896  0.63725703  0.70502134    -0.86400
O208        O  0.74463119  0.59354287  0.71435408    -0.86100
O209        O  0.76943922  0.67832247  0.69907640    -0.72800
O210        O  0.70413024  0.63710398  0.70751770    -0.85000
Zr211      Zr  0.81531616  0.73885047  0.71962880     2.26400
Zr212      Zr  0.84628254  0.71319158  0.70196915     2.06300
Zr213      Zr  0.70843763  0.62829698  0.71976645     2.10000
Zr214      Zr  0.82038373  0.62957956  0.71731872     1.78800
O215        O  0.63869646  0.62650772  0.72136013    -0.93800
O216        O  0.89507832  0.64493504  0.71508466    -0.41600
O217        O  0.78421376  0.66337324  0.72302732    -0.78200
O218        O  0.85281553  0.70523866  0.71419215    -0.96900
O219        O  0.81136854  0.74876192  0.70749894    -0.90200
O220        O  0.73899854  0.70431047  0.71687273    -0.93000
C221        C  0.78577075  0.53629972  0.70718554     1.00700
C222        C  0.64142646  0.53213123  0.71042641     1.13700
C223        C  0.80437866  0.64923769  0.68710135     1.04400
O224        O  0.90915041  0.70351419  0.69961214    -0.95200
O225        O  0.90760264  0.78146578  0.70646624    -0.90900
O226        O  0.88694396  0.80006518  0.71657859    -0.84100
C227        C  0.91475027  0.80722743  0.71170400     1.11100
O228        O  0.67796096  0.68520813  0.69595028    -0.97200
Zr229      Zr  0.73537006  0.71431952  0.70482226     1.88900
O230        O  0.80359431  0.80104592  0.71885367    -0.73800
O231        O  0.87129709  0.77375888  0.69372561    -0.53100
O232        O  0.75863683  0.75998210  0.69443739    -0.97700
O233        O  0.66867651  0.71352640  0.70868237    -0.55000
O234        O  0.76344301  0.79018588  0.70902991    -0.74300
C235        C  0.78597655  0.81378250  0.71426851     0.98000
O236        O  0.86659022  0.76264584  0.72939759    -0.63100
O237        O  0.69598170  0.57604045  0.72900645    -0.57900
O238        O  0.77765382  0.73323357  0.73041896    -0.94600
O239        O  0.71348300  0.66746152  0.73054965    -0.93100
O240        O  0.79486423  0.57390645  0.72640518    -0.93400
O241        O  0.86128549  0.65206516  0.72821089    -0.92200
C242        C  0.74131541  0.70487891  0.73326608     1.16900
H243        H  0.73052421  0.56278074  0.71562112     0.32800
H244        H  0.88334306  0.72005773  0.71558840     0.43700
H245        H  0.72474354  0.71760713  0.71940976     0.37200
H246        H  0.76490486  0.68116400  0.69420991     0.33700
H247        H  0.89700426  0.62103113  0.71749569     0.25500
H248        H  0.89577326  0.77371466  0.69115816     0.31400
H249        H  0.79002572  0.78186725  0.69527206     0.37300
H250        H  0.81385715  0.56051183  0.72601494     0.31800
H251        H  0.72261342  0.59110687  0.73196586     0.30600
H252        H  0.62251854  0.60295520  0.72481769     0.32300
H253        H  0.67886058  0.74009046  0.71165163     0.31300
H254        H  0.88097036  0.68433438  0.72778504     0.35300
H255        H  0.85334893  0.73779249  0.73271665     0.28000
H256        H  0.69482207  0.54319957  0.69074618     0.32200
H257        H  0.67192053  0.70938528  0.69492916     0.35100
H258        H  0.67222180  0.57547298  0.73187134     0.27700
H259        H  0.89288396  0.76222302  0.72761726     0.40600
H260        H  0.93215679  0.73245280  0.69782177     0.30600
H261        H  0.89530482  0.63829290  0.71007851     0.38300
H262        H  0.65444485  0.68846373  0.71194220     0.30100
H263        H  0.84732597  0.76412443  0.69026270     0.30200
H264        H  0.69004597  0.58509985  0.68959363     0.30400
Zr265      Zr  0.36419704  0.23774983  0.61290952     2.17500
O266        O  0.39462121  0.22012584  0.60278793    -0.51900
O267        O  0.42244572  0.31308166  0.61442914    -0.75100
O268        O  0.35448949  0.27192647  0.60248931    -0.81900
O269        O  0.41186908  0.19111299  0.62561430    -0.83700
O270        O  0.28624771  0.26421415  0.60262783    -0.79300
O271        O  0.42638497  0.22700529  0.61527959    -0.90900
O272        O  0.40577162  0.34207863  0.62375919    -0.76900
O273        O  0.32394147  0.27357664  0.61589826    -0.86400
O274        O  0.37340996  0.25112864  0.62513982    -0.86100
O275        O  0.28972870  0.18707228  0.60953672    -0.72800
O276        O  0.33648517  0.16724561  0.61836459    -0.85000
Zr277      Zr  0.22775895  0.16378897  0.63049371     2.26400
Zr278      Zr  0.24920197  0.22246341  0.61298397     2.06300
Zr279      Zr  0.34377489  0.18101366  0.63062369     2.10000
Zr280      Zr  0.33300771  0.28679622  0.62803500     1.78800
O281        O  0.33791290  0.11013718  0.63317800    -0.93800
O282        O  0.32274720  0.34752350  0.62432645    -0.41600
O283        O  0.30262494  0.21627257  0.63352497    -0.78200
O284        O  0.25667721  0.23611292  0.62530337    -0.96900
O285        O  0.21954988  0.15128572  0.61824761    -0.90200
O286        O  0.26916913  0.12882134  0.62758141    -0.93000
C287        C  0.43138414  0.34436244  0.61877274     1.00700
C288        C  0.43600193  0.20862144  0.62021648     1.13700
C289        C  0.32431348  0.27822560  0.59986689     1.04400
O290        O  0.23665285  0.28472328  0.61215120    -0.95200
O291        O  0.17606778  0.20308768  0.61674779    -0.90900
O292        O  0.16489974  0.17299981  0.62750197    -0.84100
C293        C  0.15283332  0.18688647  0.62224140     1.11100
O294        O  0.29300825  0.09641938  0.60568952    -0.97200
Zr295      Zr  0.26166723  0.11749696  0.61526262     1.88900
O296        O  0.17657482  0.08367019  0.62947235    -0.73800
O297        O  0.20317855  0.18530310  0.60290615    -0.53100
O298        O  0.21196507  0.09338543  0.60532493    -0.97700
O299        O  0.27302263  0.05552016  0.61766850    -0.55000
O300        O  0.19289804  0.05944613  0.61958243    -0.74300
C301        C  0.16879004  0.05347385  0.62490931     0.98000
O302        O  0.18099966  0.15651640  0.64040590    -0.63100
O303        O  0.40317257  0.21947298  0.63904556    -0.57900
O304        O  0.25079994  0.16345934  0.64257860    -0.94600
O305        O  0.31915077  0.17150059  0.64265652    -0.93100
O306        O  0.37911755  0.31274784  0.63839255    -0.93400
O307        O  0.30358117  0.31156438  0.63740149    -0.92200
C308        C  0.28468881  0.16686502  0.64578122     1.16900
H309        H  0.40403216  0.26895959  0.62639303     0.32800
H310        H  0.23949973  0.24933755  0.62677548     0.43700
H311        H  0.25884698  0.10159638  0.63010669     0.37200
H312        H  0.28793425  0.18265145  0.60455919     0.33700
H313        H  0.34788910  0.37421604  0.62639208     0.25500
H314        H  0.17517113  0.16157874  0.60485072     0.31400
H315        H  0.19818656  0.06082432  0.60526788     0.37300
H316        H  0.38610346  0.28925564  0.63943017     0.31800
H317        H  0.41174424  0.19755982  0.64040692     0.30600
H318        H  0.32900204  0.10448990  0.63812240     0.32300
H319        H  0.24605182  0.02909403  0.61595422     0.31300
H320        H  0.28804606  0.28556914  0.64046691     0.35300
H321        H  0.17862096  0.18355224  0.64047349     0.28000
H322        H  0.41234143  0.24836591  0.60030500     0.32200
H323        H  0.32487838  0.11832075  0.60582962     0.35100
H324        H  0.42864267  0.24202417  0.63638569     0.27700
H325        H  0.15116556  0.13222420  0.63918642     0.40600
H326        H  0.24554749  0.29963974  0.61673370     0.30600
H327        H  0.32895573  0.35037916  0.61927348     0.38300
H328        H  0.27142081  0.05242127  0.62278846     0.30100
H329        H  0.19560290  0.20688021  0.60099076     0.30200
H330        H  0.36902764  0.20230763  0.59972002     0.30400
Zr331      Zr  0.37535653  0.17594939  0.70239379     2.17500
O332        O  0.42515377  0.17378999  0.69372361    -0.51900
O333        O  0.42838925  0.25494292  0.70364441    -0.75100
O334        O  0.35882945  0.18879711  0.69039247    -0.81900
O335        O  0.41981925  0.12868908  0.71602652    -0.83700
O336        O  0.29061865  0.18122012  0.69015190    -0.79300
O337        O  0.43637711  0.16450687  0.70568312    -0.90900
O338        O  0.40896257  0.28139786  0.71295867    -0.76900
O339        O  0.33551522  0.21271481  0.70524925    -0.86400
O340        O  0.38127737  0.18707940  0.71469445    -0.86100
O341        O  0.30072543  0.12492897  0.69888062    -0.72800
O342        O  0.34439183  0.10369224  0.70760641    -0.85000
Zr343      Zr  0.23393655  0.10209048  0.71915993     2.26400
Zr344      Zr  0.26099476  0.16237858  0.70184942     2.06300
Zr345      Zr  0.34872577  0.11584512  0.71994830     2.10000
Zr346      Zr  0.34078179  0.22245103  0.71757809     1.78800
O347        O  0.36347509  0.05662207  0.72273335    -0.93800
O348        O  0.32854241  0.28399671  0.71539377    -0.41600
O349        O  0.30805125  0.15142835  0.72301382    -0.78200
O350        O  0.26600284  0.17458582  0.71416031    -0.96900
O351        O  0.22895287  0.09070069  0.70690900    -0.90200
O352        O  0.27464362  0.06600980  0.71643007    -0.93000
C353        C  0.43470661  0.28615780  0.70788885     1.00700
C354        C  0.44560115  0.14725927  0.71084612     1.13700
C355        C  0.32606817  0.18771065  0.68714097     1.04400
O356        O  0.26893932  0.23486159  0.70011862    -0.95200
O357        O  0.19123215  0.15310363  0.70599225    -0.90900
O358        O  0.17311232  0.11408054  0.71605542    -0.84100
C359        C  0.16546582  0.13449223  0.71118775     1.11100
O360        O  0.30298624  0.02983565  0.69553325    -0.97200
Zr361      Zr  0.26938305  0.05458471  0.70425599     1.88900
O362        O  0.17331321  0.02850867  0.71653759    -0.73800
O363        O  0.20109659  0.12655963  0.69346507    -0.53100
O364        O  0.22913478  0.03330853  0.69326967    -0.97700
O365        O  0.27469764  0.99120282  0.70818286    -0.55000
O366        O  0.19434338  0.00179691  0.70742192    -0.74300
C367        C  0.16609680  0.99881826  0.71194391     0.98000
O368        O  0.20385430  0.11989863  0.72932894    -0.63100
O369        O  0.39653064  0.16275385  0.72925300    -0.57900
O370        O  0.23818456  0.06603892  0.72979224    -0.94600
O371        O  0.30732632  0.07584539  0.73023304    -0.93100
O372        O  0.39169688  0.24509018  0.72735064    -0.93400
O373        O  0.31189399  0.24307583  0.72754921    -0.92200
C374        C  0.26833362  0.06093332  0.73272758     1.16900
H375        H  0.41168629  0.20497802  0.71610504     0.32800
H376        H  0.24965143  0.18880910  0.71556301     0.43700
H377        H  0.26266122  0.03796604  0.71877024     0.37200
H378        H  0.29862666  0.11768887  0.69400126     0.33700
H379        H  0.35234852  0.30921932  0.71797297     0.25500
H380        H  0.20361275  0.15062805  0.69046813     0.31400
H381        H  0.20542648  0.00232777  0.69389600     0.37300
H382        H  0.40442935  0.27747288  0.72768787     0.31800
H383        H  0.37652647  0.15821694  0.73319461     0.30600
H384        H  0.38235044  0.06707399  0.72693354     0.32300
H385        H  0.24744227  0.97270805  0.71085595     0.31300
H386        H  0.28410368  0.21587826  0.72872020     0.35300
H387        H  0.22799753  0.13197701  0.73279353     0.28000
H388        H  0.43881274  0.20278228  0.69137469     0.32200
H389        H  0.28093564  0.99861325  0.69453511     0.35100
H390        H  0.41339879  0.14843495  0.73072094     0.27700
H391        H  0.20142396  0.14585803  0.72797746     0.40600
H392        H  0.24813996  0.23044068  0.69631147     0.30600
H393        H  0.33626261  0.29134991  0.71043694     0.38300
H394        H  0.29844073  0.00328452  0.71171445     0.30100
H395        H  0.20941300  0.10896472  0.69042633     0.30200
H396        H  0.40613996  0.15206627  0.69016025     0.30400
Zr397      Zr  0.23304115  0.40305603  0.88682500     2.17500
O398        O  0.22853244  0.44620655  0.89648195    -0.51900
O399        O  0.30713125  0.45938570  0.88372766    -0.75100
O400        O  0.26857653  0.39800861  0.89733279    -0.81900
O401        O  0.17770966  0.44426146  0.87444134    -0.83700
O402        O  0.26044509  0.32965352  0.89837097    -0.79300
O403        O  0.21682986  0.46164022  0.88450622    -0.90900
O404        O  0.33087465  0.43208074  0.87508660    -0.76900
O405        O  0.26571286  0.35944676  0.88401566    -0.86400
O406        O  0.23895446  0.40510017  0.87448800    -0.86100
O407        O  0.18448040  0.33090738  0.89140166    -0.72800
O408        O  0.15957248  0.37309420  0.88246682    -0.85000
Zr409      Zr  0.14793146  0.25870179  0.87130982     2.26400
Zr410      Zr  0.21641743  0.28652896  0.88817816     2.06300
Zr411      Zr  0.16569640  0.37404338  0.87007607     2.10000
Zr412      Zr  0.27093437  0.36089925  0.87171853     1.78800
O413        O  0.09387495  0.36685049  0.86801442    -0.93800
O414        O  0.33121384  0.34824474  0.87469153    -0.41600
O415        O  0.19840959  0.33072447  0.86715342    -0.78200
O416        O  0.22206001  0.28744636  0.87567567    -0.96900
O417        O  0.14295530  0.25597850  0.88368690    -0.90200
O418        O  0.11499043  0.30181902  0.87428429    -0.93000
C419        C  0.33628490  0.46252180  0.87937142     1.00700
C420        C  0.19640269  0.46954448  0.87969539     1.13700
C421        C  0.27470688  0.36954353  0.90057428     1.04400
O422        O  0.27839951  0.27454474  0.88983071    -0.95200
O423        O  0.20000967  0.21275140  0.88416137    -0.90900
O424        O  0.15821031  0.19783699  0.87442087    -0.84100
C425        C  0.17775712  0.18757329  0.87902172     1.11100
O426        O  0.10017147  0.34055679  0.89612085    -0.97200
Zr427      Zr  0.11171061  0.30037622  0.88671737     1.88900
O428        O  0.06949164  0.20846032  0.87318687    -0.73800
O429        O  0.17434886  0.24216004  0.89806199    -0.53100
O430        O  0.09369448  0.25699297  0.89733490    -0.97700
O431        O  0.04859450  0.31086188  0.88506035    -0.55000
O432        O  0.05214997  0.22883061  0.88336585    -0.74300
C433        C  0.04278538  0.20248287  0.87818559     0.98000
O434        O  0.13511642  0.20791766  0.86166404    -0.63100
O435        O  0.19715692  0.42899070  0.86087310    -0.57900
O436        O  0.14237019  0.27442884  0.85908487    -0.94600
O437        O  0.15135475  0.34312439  0.85838331    -0.93100
O438        O  0.29264671  0.40569744  0.86124973    -0.93400
O439        O  0.28609184  0.32558267  0.86200295    -0.92200
C440        C  0.14524246  0.30703732  0.85559374     1.16900
H441        H  0.25660123  0.43489603  0.87278263     0.32800
H442        H  0.23415791  0.26941264  0.87412059     0.43700
H443        H  0.08626885  0.29043666  0.87217988     0.37200
H444        H  0.18296761  0.33241450  0.89640595     0.33700
H445        H  0.35510590  0.36680930  0.87140959     0.25500
H446        H  0.15550683  0.21212437  0.89613335     0.31400
H447        H  0.08310846  0.22629280  0.89576718     0.37300
H448        H  0.26453264  0.39975044  0.85910926     0.31800
H449        H  0.17455073  0.43729258  0.85989476     0.30600
H450        H  0.09957604  0.39753966  0.86781071     0.32300
H451        H  0.02678027  0.28499802  0.88234929     0.31300
H452        H  0.25689011  0.30609182  0.85987769     0.35300
H453        H  0.16165494  0.20485814  0.86135522     0.28000
H454        H  0.25933020  0.46665331  0.89792188     0.32200
H455        H  0.07231937  0.31892378  0.89839343     0.35100
H456        H  0.22182626  0.45560777  0.86303867     0.27700
H457        H  0.11115604  0.17870978  0.86319834     0.40600
H458        H  0.29602269  0.28594912  0.88553237     0.30600
H459        H  0.34200652  0.36289698  0.87926264     0.38300
H460        H  0.05916148  0.33585857  0.88178701     0.30100
H461        H  0.19618801  0.23966105  0.90098523     0.30200
H462        H  0.21517056  0.42534101  0.90039198     0.30400
Zr463      Zr  0.15951690  0.38339203  0.79865860     2.17500
O464        O  0.17137122  0.44150354  0.80694274    -0.51900
O465        O  0.23915908  0.43149188  0.79687225    -0.75100
O466        O  0.16961081  0.36733992  0.81074653    -0.81900
O467        O  0.11748658  0.43352100  0.78502431    -0.83700
O468        O  0.15463459  0.29646435  0.81147656    -0.79300
O469        O  0.14600539  0.44334629  0.79590960    -0.90900
O470        O  0.26224602  0.40221443  0.78845352    -0.76900
O471        O  0.18783397  0.33529788  0.79640014    -0.86400
O472        O  0.17114713  0.38600991  0.78639091    -0.86100
O473        O  0.10156199  0.31231424  0.80250511    -0.72800
O474        O  0.08886735  0.35900559  0.79327232    -0.85000
Zr475      Zr  0.07362606  0.24174768  0.78246804     2.26400
Zr476      Zr  0.13027331  0.26414585  0.80004563     2.06300
Zr477      Zr  0.10088184  0.36082974  0.78097384     2.10000
Zr478      Zr  0.19835659  0.33704184  0.78410746     1.78800
O479        O  0.04112685  0.37511017  0.77848608    -0.93800
O480        O  0.25086049  0.31305915  0.78690418    -0.41600
O481        O  0.12915063  0.31271561  0.77841320    -0.78200
O482        O  0.14377922  0.26551811  0.78780935    -0.96900
O483        O  0.06061954  0.23892745  0.79462049    -0.90200
O484        O  0.04478886  0.28942677  0.78465600    -0.93000
C485        C  0.26928788  0.43213122  0.79295263     1.00700
C486        C  0.13244415  0.45593492  0.79067646     1.13700
C487        C  0.16528444  0.33400694  0.81421701     1.04400
O488        O  0.19339127  0.25601811  0.80294015    -0.95200
O489        O  0.11181410  0.19087669  0.79619932    -0.90900
O490        O  0.07621720  0.17648135  0.78581697    -0.84100
C491        C  0.09277284  0.16606593  0.79090459     1.11100
O492        O  0.01498999  0.32699769  0.80546098    -0.97200
Zr493      Zr  0.03242743  0.28681795  0.79679792     1.88900
O494        O  0.99754638  0.18711591  0.78469006    -0.73800
O495        O  0.08211984  0.20974006  0.80850975    -0.53100
O496        O  0.00368446  0.24375894  0.80740153    -0.97700
O497        O  0.97651852  0.30353800  0.79279129    -0.55000
O498        O  0.97343184  0.21373831  0.79338693    -0.74300
C499        C  0.96812797  0.18342783  0.78903464     0.98000
O500        O  0.08443881  0.20602116  0.77229805    -0.63100
O501        O  0.14932734  0.40977969  0.77197536    -0.57900
O502        O  0.04330504  0.24974523  0.77166670    -0.94600
O503        O  0.06342035  0.32182189  0.77021968    -0.93100
O504        O  0.22961863  0.38269727  0.77382888    -0.93400
O505        O  0.21159695  0.29675750  0.77493732    -0.92200
C506        C  0.04443138  0.28128731  0.76813499     1.16900
H507        H  0.19178931  0.41568595  0.78492063     0.32800
H508        H  0.15460497  0.24583232  0.78661014     0.43700
H509        H  0.01759793  0.27996011  0.78216896     0.37200
H510        H  0.09487922  0.31236181  0.80736729     0.33700
H511        H  0.27846516  0.33445820  0.78454440     0.25500
H512        H  0.10216776  0.20553615  0.81162013     0.31400
H513        H  0.97131994  0.22682629  0.80678272     0.37300
H514        H  0.23908990  0.41319347  0.77538067     0.31800
H515        H  0.15595432  0.39068086  0.76899273     0.30600
H516        H  0.05177174  0.39580400  0.77452028     0.32300
H517        H  0.95759593  0.27915535  0.78957415     0.31300
H518        H  0.18554710  0.28552579  0.77185980     0.35300
H519        H  0.10287865  0.23044364  0.76908979     0.28000
H520        H  0.19961174  0.45008909  0.80930678     0.32200
H521        H  0.98426541  0.30659184  0.80691577     0.35100
H522        H  0.13015526  0.41650064  0.76907568     0.27700
H523        H  0.10429055  0.19517185  0.77380144     0.40600
H524        H  0.19964675  0.24443057  0.79864057     0.30600
H525        H  0.25721290  0.31974878  0.79191763     0.38300
H526        H  0.99261411  0.32959527  0.78976152     0.30100
H527        H  0.07077668  0.22532787  0.81141242     0.30200
H528        H  0.14845901  0.42717050  0.81056464     0.30400
Zr529      Zr  0.61362600  0.80663948  0.88514419     2.17500
O530        O  0.58528947  0.76146411  0.89554557    -0.51900
O531        O  0.55423655  0.82119525  0.88345930    -0.75100
O532        O  0.62070653  0.85201372  0.89501742    -0.81900
O533        O  0.56406637  0.71092129  0.87318321    -0.83700
O534        O  0.68861150  0.91305949  0.89538257    -0.79300
O535        O  0.54993956  0.73581738  0.88324357    -0.90900
O536        O  0.56760401  0.86009023  0.87346710    -0.76900
O537        O  0.65143146  0.88175571  0.88181026    -0.86400
O538        O  0.60363014  0.80488920  0.87288464    -0.86100
O539        O  0.68801332  0.83418491  0.88880350    -0.72800
O540        O  0.64169428  0.76190269  0.88054455    -0.85000
Zr541      Zr  0.74946525  0.86647819  0.86800550     2.26400
Zr542      Zr  0.72652551  0.90924913  0.88493906     2.06300
Zr543      Zr  0.63530722  0.76365125  0.86823181     2.10000
Zr544      Zr  0.64208033  0.88053373  0.86964006     1.78800
O545        O  0.65124170  0.70355238  0.86737988    -0.93800
O546        O  0.65014309  0.95131459  0.87310293    -0.41600
O547        O  0.67396614  0.83943056  0.86514377    -0.78200
O548        O  0.71867030  0.90999943  0.87255917    -0.96900
O549        O  0.75733588  0.86671700  0.88032340    -0.90200
O550        O  0.71060475  0.79058818  0.87135548    -0.93000
C551        C  0.54320820  0.83918670  0.87870298     1.00700
C552        C  0.53987243  0.70670883  0.87847843     1.13700
C553        C  0.64976951  0.88812296  0.89785226     1.04400
O554        O  0.73003431  0.98050003  0.88504370    -0.95200
O555        O  0.79762187  0.96498946  0.88054382    -0.90900
O556        O  0.80712780  0.94280406  0.86990159    -0.84100
C557        C  0.81926799  0.97114571  0.87487158     1.11100
O558        O  0.68402149  0.74609034  0.89407361    -0.97200
Zr559      Zr  0.71684244  0.79122016  0.88376795     1.88900
O560        O  0.80401343  0.84264674  0.86981529    -0.73800
O561        O  0.77727249  0.92779358  0.89466767    -0.53100
O562        O  0.76880771  0.81886087  0.89341869    -0.97700
O563        O  0.70325155  0.71615301  0.88216590    -0.55000
O564        O  0.78427925  0.79942228  0.87939601    -0.74300
C565        C  0.81022489  0.81927399  0.87433684     0.98000
O566        O  0.79809249  0.89707108  0.85796646    -0.63100
O567        O  0.58239588  0.71902232  0.85923709    -0.57900
O568        O  0.72363824  0.84517760  0.85595866    -0.94600
O569        O  0.65440168  0.78603103  0.85615799    -0.93100
O570        O  0.59974160  0.85846452  0.85888185    -0.93400
O571        O  0.67345077  0.93228458  0.86004983    -0.92200
C572        C  0.68777217  0.81656977  0.85291553     1.16900
H573        H  0.57302051  0.79083912  0.87156860     0.32800
H574        H  0.73435796  0.93982513  0.87083975     0.43700
H575        H  0.72252774  0.77419735  0.86907428     0.37200
H576        H  0.68945742  0.83320833  0.89381235     0.33700
H577        H  0.62774453  0.95383324  0.87033413     0.25500
H578        H  0.80034536  0.92172756  0.89294057     0.31400
H579        H  0.78272786  0.80025219  0.89341116     0.37300
H580        H  0.60110428  0.83226526  0.85725706     0.31800
H581        H  0.57025747  0.68791877  0.86066723     0.30600
H582        H  0.62727138  0.67918638  0.87003492     0.32300
H583        H  0.71388439  0.71537974  0.87742486     0.31300
H584        H  0.69239939  0.92313911  0.85757105     0.35300
H585        H  0.79914222  0.92524097  0.85689367     0.28000
H586        H  0.56388343  0.76899668  0.89757127     0.32200
H587        H  0.70349203  0.73431348  0.89535283     0.35100
H588        H  0.55765280  0.72483293  0.85976136     0.27700
H589        H  0.82798295  0.90581739  0.85967869     0.40600
H590        H  0.74969757  0.99675868  0.88899262     0.30600
H591        H  0.63899691  0.94707998  0.87793417     0.38300
H592        H  0.67082390  0.69749525  0.88185596     0.30100
H593        H  0.79220515  0.96037048  0.89505011     0.30200
H594        H  0.61025427  0.77373939  0.89886084     0.30400
Zr595      Zr  0.56102413  0.77312257  0.79948140     2.17500
O596        O  0.51556607  0.72459892  0.80882796    -0.51900
O597        O  0.50484570  0.79583805  0.79821717    -0.75100
O598        O  0.58320636  0.80444824  0.81124626    -0.81900
O599        O  0.50980586  0.67247181  0.78738535    -0.83700
O600        O  0.65278081  0.86289847  0.81077567    -0.79300
O601        O  0.50084427  0.69853944  0.79774314    -0.90900
O602        O  0.52196095  0.83912250  0.78868597    -0.76900
O603        O  0.60049379  0.84887934  0.79622747    -0.86400
O604        O  0.54860172  0.77373989  0.78731245    -0.86100
O605        O  0.63690141  0.79544139  0.80195564    -0.72800
O606        O  0.58870360  0.72921001  0.79403431    -0.85000
Zr607      Zr  0.69200028  0.83297916  0.78105528     2.26400
Zr608      Zr  0.67605373  0.87189513  0.79871968     2.06300
Zr609      Zr  0.57632854  0.73102844  0.78184845     2.10000
Zr610      Zr  0.58938048  0.84913240  0.78395668     1.78800
O611        O  0.56557483  0.65786330  0.77941332    -0.93800
O612        O  0.60594601  0.92421984  0.78656143    -0.41600
O613        O  0.61629105  0.80660125  0.77819995    -0.78200
O614        O  0.66492852  0.87623655  0.78653285    -0.96900
O615        O  0.70479430  0.83049677  0.79312760    -0.90200
O616        O  0.65244739  0.75679375  0.78418377    -0.93000
C617        C  0.49676395  0.81848021  0.79378075     1.00700
C618        C  0.48864893  0.66834579  0.79307486     1.13700
C619        C  0.61861110  0.83485703  0.81414597     1.04400
O620        O  0.67239828  0.93837351  0.80111578    -0.95200
O621        O  0.74382859  0.92947866  0.79361219    -0.90900
O622        O  0.75506213  0.90646727  0.78312891    -0.84100
C623        C  0.76601492  0.93549391  0.78799688     1.11100
O624        O  0.63784229  0.70129283  0.80560254    -0.97200
Zr625      Zr  0.66544496  0.75468135  0.79615676     1.88900
O626        O  0.75235911  0.81888069  0.78215967    -0.73800
O627        O  0.73965819  0.89648594  0.80634436    -0.53100
O628        O  0.71440665  0.77753809  0.80620291    -0.97700
O629        O  0.65372873  0.68265423  0.79252134    -0.55000
O630        O  0.73768971  0.77385839  0.79143439    -0.74300
C631        C  0.76264114  0.79755731  0.78643484     0.98000
O632        O  0.71753105  0.87760952  0.77052753    -0.63100
O633        O  0.52138966  0.72184967  0.77325394    -0.57900
O634        O  0.67983520  0.78898320  0.77069530    -0.94600
O635        O  0.61040001  0.72985282  0.77084615    -0.93100
O636        O  0.53819245  0.82469487  0.77419656    -0.93400
O637        O  0.61447883  0.89677221  0.77380743    -0.92200
C638        C  0.64839155  0.75348644  0.76802468     1.16900
H639        H  0.51763264  0.76101534  0.78631919     0.32800
H640        H  0.68104450  0.90634260  0.78493330     0.43700
H641        H  0.66280832  0.73982875  0.78164814     0.37200
H642        H  0.64114516  0.79097524  0.80676713     0.33700
H643        H  0.60132908  0.92456622  0.79163629     0.25500
H644        H  0.74077018  0.92094621  0.80912275     0.31400
H645        H  0.74202560  0.80356065  0.80461512     0.37300
H646        H  0.51045223  0.79975842  0.77599115     0.31800
H647        H  0.51835374  0.69766077  0.77018464     0.30600
H648        H  0.54881886  0.64854342  0.77499532     0.32300
H649        H  0.67645389  0.68886068  0.78895290     0.31300
H650        H  0.63867647  0.89315266  0.77187960     0.35300
H651        H  0.69217707  0.86421094  0.76728861     0.28000
H652        H  0.50524491  0.74158283  0.81160792     0.32200
H653        H  0.65998017  0.69192484  0.80623640     0.35100
H654        H  0.49326587  0.70884701  0.77584553     0.27700
H655        H  0.72019827  0.90633564  0.77178083     0.40600
H656        H  0.68665825  0.95765768  0.79706198     0.30600
H657        H  0.63816352  0.94297817  0.78595035     0.38300
H658        H  0.62561599  0.66892017  0.78991384     0.30100
H659        H  0.73133565  0.87222794  0.80970157     0.30200
H660        H  0.53586341  0.72059493  0.81191349     0.30400
Zr661      Zr  0.20396050  0.78036485  0.88313979     2.17500
O662        O  0.25219247  0.79133458  0.89298333    -0.51900
O663        O  0.18238600  0.70425080  0.88104208    -0.75100
O664        O  0.16065842  0.74580228  0.89364922    -0.81900
O665        O  0.29491165  0.82572253  0.86978870    -0.83700
O666        O  0.10288136  0.75815962  0.89382950    -0.79300
O667        O  0.27637442  0.78985934  0.88013784    -0.90900
O668        O  0.13079692  0.67809870  0.87249798    -0.76900
O669        O  0.12756691  0.75022792  0.88065741    -0.86400
O670        O  0.19610743  0.76878242  0.87084641    -0.86100
O671        O  0.18447755  0.83358852  0.88710767    -0.72800
O672        O  0.24900095  0.85090128  0.87784932    -0.85000
Zr673      Zr  0.14606894  0.86484996  0.86683321     2.26400
Zr674      Zr  0.10826901  0.80421862  0.88405458     2.06300
Zr675      Zr  0.23862939  0.83960249  0.86555840     2.10000
Zr676      Zr  0.11971200  0.73801222  0.86853990     1.78800
O677        O  0.30356769  0.90880687  0.86232373    -0.93800
O678        O  0.04708066  0.68280965  0.87267895    -0.41600
O679        O  0.16243630  0.80885780  0.86331980    -0.78200
O680        O  0.09937138  0.79209455  0.87174882    -0.96900
O681        O  0.15351499  0.87551637  0.87910751    -0.90200
O682        O  0.22240955  0.89524127  0.86928066    -0.93000
C683        C  0.15556242  0.67357145  0.87694866     1.00700
C684        C  0.30260021  0.80754544  0.87493517     1.13700
C685        C  0.12501126  0.74131581  0.89636861     1.04400
O686        O  0.03304250  0.74785274  0.88680363    -0.95200
O687        O  0.05203180  0.82088894  0.88001478    -0.90900
O688        O  0.07371971  0.85343577  0.86944885    -0.84100
C689        C  0.04655155  0.83847200  0.87452303     1.11100
O690        O  0.28371952  0.91794611  0.89071927    -0.97200
Zr691      Zr  0.22949871  0.90361698  0.88166982     1.88900
O692        O  0.17482365  0.94423991  0.86937090    -0.73800
O693        O  0.10965836  0.85076271  0.89362129    -0.53100
O694        O  0.21446516  0.93086569  0.89243052    -0.97700
O695        O  0.30366232  0.95936359  0.87819680    -0.55000
O696        O  0.22256494  0.96566979  0.87843039    -0.74300
C697        C  0.20072980  0.97308398  0.87386692     0.98000
O698        O  0.12055583  0.89269317  0.85736773    -0.63100
O699        O  0.25908465  0.80295178  0.85668784    -0.57900
O700        O  0.15764925  0.85418708  0.85447476    -0.94600
O701        O  0.21825751  0.84681759  0.85379032    -0.93100
O702        O  0.13515030  0.71015626  0.85790111    -0.93400
O703        O  0.06444481  0.71681042  0.85944414    -0.92200
C704        C  0.18625539  0.84906502  0.85099380     1.16900
H705        H  0.20667566  0.74945762  0.86927835     0.32800
H706        H  0.06904499  0.77991297  0.87037995     0.43700
H707        H  0.23996053  0.92273712  0.86685075     0.37200
H708        H  0.18816396  0.83698924  0.89209079     0.33700
H709        H  0.03979454  0.65576486  0.86999169     0.25500
H710        H  0.08108935  0.83276203  0.89600099     0.31400
H711        H  0.19032170  0.93662848  0.89126888     0.37300
H712        H  0.15811981  0.73681621  0.85551939     0.31800
H713        H  0.29148258  0.82101144  0.85623634     0.30600
H714        H  0.31540517  0.90137478  0.85817694     0.32300
H715        H  0.29985641  0.97489818  0.87420833     0.31300
H716        H  0.06871386  0.74516721  0.85765403     0.35300
H717        H  0.09090939  0.86817106  0.85611735     0.28000
H718        H  0.24435247  0.76122508  0.89447260     0.32200
H719        H  0.29778591  0.94991010  0.89177454     0.35100
H720        H  0.25376865  0.77497126  0.85880076     0.27700
H721        H  0.11505412  0.91532884  0.85949521     0.40600
H722        H  0.02188100  0.73004949  0.88249109     0.30600
H723        H  0.05194039  0.67606527  0.87747883     0.38300
H724        H  0.31655332  0.94234387  0.87614962     0.30100
H725        H  0.13172552  0.85170840  0.89692233     0.30200
H726        H  0.24184773  0.80301993  0.89679652     0.30400
Zr727      Zr  0.17607099  0.78742689  0.79542058     2.17500
O728        O  0.22061024  0.76651652  0.80244479    -0.51900
O729        O  0.15138029  0.71000051  0.79240004    -0.75100
O730        O  0.15538669  0.77708194  0.80783575    -0.81900
O731        O  0.27092686  0.85199907  0.78244800    -0.83700
O732        O  0.08903466  0.77322405  0.80885213    -0.79300
O733        O  0.25286414  0.81515224  0.79269648    -0.90900
O734        O  0.11032965  0.69118677  0.78257533    -0.76900
O735        O  0.09955881  0.75043041  0.79283350    -0.86400
O736        O  0.17060254  0.78418352  0.78301483    -0.86100
O737        O  0.15236625  0.83577752  0.80032315    -0.72800
O738        O  0.21596871  0.86233493  0.79116875    -0.85000
Zr739      Zr  0.10382827  0.86755488  0.78146723     2.26400
Zr740      Zr  0.07511723  0.79743458  0.79776213     2.06300
Zr741      Zr  0.20753327  0.85834244  0.77879657     2.10000
Zr742      Zr  0.09416743  0.74899777  0.78042539     1.78800
O743        O  0.27828647  0.92325001  0.77623837    -0.93800
O744        O  0.02376287  0.68506225  0.78351573    -0.41600
O745        O  0.13048844  0.82300356  0.77609361    -0.78200
O746        O  0.06565815  0.79230161  0.78535411    -0.96900
O747        O  0.11267398  0.87218392  0.79375345    -0.90200
O748        O  0.18118790  0.90387079  0.78367423    -0.93000
C749        C  0.13019068  0.68304257  0.78739605     1.00700
C750        C  0.27996093  0.83561814  0.78775226     1.13700
C751        C  0.12266775  0.77317378  0.81147029     1.04400
O752        O  0.01254453  0.72303004  0.79885755    -0.95200
O753        O  0.01344776  0.80730458  0.79501583    -0.90900
O754        O  0.02813680  0.84627107  0.78500607    -0.84100
C755        C  0.00263745  0.82476399  0.79011841     1.11100
O756        O  0.25056402  0.92671742  0.80388239    -0.97200
Zr757      Zr  0.18994425  0.90852919  0.79587231     1.88900
O758        O  0.11721403  0.93880431  0.78563969    -0.73800
O759        O  0.05012193  0.82571358  0.80727896    -0.53100
O760        O  0.17477989  0.92573612  0.80749398    -0.97700
O761        O  0.25771643  0.97392064  0.79219530    -0.55000
O762        O  0.16728442  0.96252536  0.79438595    -0.74300
C763        C  0.14052772  0.96670884  0.79037871     0.98000
O764        O  0.05925362  0.86798750  0.77177837    -0.63100
O765        O  0.21152574  0.81787167  0.76873349    -0.57900
O766        O  0.14060856  0.90650344  0.77081694    -0.94600
O767        O  0.20267439  0.90214229  0.76934408    -0.93100
O768        O  0.11529515  0.73097951  0.76933141    -0.93400
O769        O  0.03948546  0.73113722  0.77132904    -0.92200
C770        C  0.17593926  0.91533972  0.76747647     1.16900
H771        H  0.18407362  0.76820863  0.78109012     0.32800
H772        H  0.03490283  0.77778387  0.78411399     0.43700
H773        H  0.19600858  0.93304775  0.78167862     0.37200
H774        H  0.15841756  0.84261914  0.80519186     0.33700
H775        H  0.01980349  0.66179607  0.78015513     0.25500
H776        H  0.03108368  0.79969749  0.81017323     0.31400
H777        H  0.14426102  0.92026375  0.80724010     0.37300
H778        H  0.14323634  0.73135542  0.77025124     0.31800
H779        H  0.21739356  0.83779182  0.76474111     0.30600
H780        H  0.28854445  0.91539554  0.77194814     0.32300
H781        H  0.24850509  0.99024329  0.78907745     0.31300
H782        H  0.04740381  0.75994421  0.76922921     0.35300
H783        H  0.03311386  0.83797472  0.77162429     0.28000
H784        H  0.19957613  0.73874475  0.80480226     0.32200
H785        H  0.26103224  0.95744385  0.80542911     0.35100
H786        H  0.23925643  0.81734110  0.76936437     0.27700
H787        H  0.04787088  0.88756842  0.77326170     0.40600
H788        H  0.99375385  0.71928776  0.79478221     0.30600
H789        H  0.02912858  0.67492615  0.78801263     0.38300
H790        H  0.27233060  0.96244107  0.78910146     0.30100
H791        H  0.07667264  0.84368587  0.81015265     0.30200
H792        H  0.23354461  0.78887812  0.80620866     0.30400
Zr793      Zr  0.49741715  0.45856199  0.55145399     2.17500
O794        O  0.54408865  0.47961328  0.56176850    -0.51900
O795        O  0.48683980  0.38517721  0.55052665    -0.75100
O796        O  0.45481989  0.42560283  0.56192568    -0.81900
O797        O  0.59430113  0.51454604  0.53918281    -0.83700
O798        O  0.38982832  0.42514807  0.56162630    -0.79300
O799        O  0.57424736  0.47898688  0.54954478    -0.90900
O800        O  0.43820370  0.35009314  0.54176819    -0.76900
O801        O  0.42159948  0.41603637  0.54829907    -0.86400
O802        O  0.49665417  0.44441382  0.53930936    -0.86100
O803        O  0.46479825  0.50254736  0.55441638    -0.72800
O804        O  0.53560884  0.52926246  0.54602412    -0.85000
Zr805      Zr  0.42616728  0.51791627  0.53302390     2.26400
Zr806      Zr  0.38941541  0.46085939  0.55075005     2.06300
Zr807      Zr  0.53261964  0.51520607  0.53384869     2.10000
Zr808      Zr  0.42085681  0.40196993  0.53625240     1.78800
O809        O  0.59263476  0.58982146  0.53164890    -0.93800
O810        O  0.34950452  0.33839284  0.53901970    -0.41600
O811        O  0.45722327  0.47206635  0.53073035    -0.78200
O812        O  0.38698179  0.44603288  0.53850385    -0.96900
O813        O  0.42674252  0.53125761  0.54522447    -0.90200
O814        O  0.50175181  0.56098468  0.53633566    -0.93000
C815        C  0.46330248  0.35122902  0.54672288     1.00700
C816        C  0.60256809  0.49987588  0.54472327     1.13700
C817        C  0.41748097  0.41635310  0.56456407     1.04400
O818        O  0.31812468  0.39508483  0.55261264    -0.95200
O819        O  0.32973659  0.46900085  0.54589224    -0.90900
O820        O  0.35017228  0.49838789  0.53510146    -0.84100
C821        C  0.32257642  0.48289548  0.54013644     1.11100
O822        O  0.54818532  0.59186811  0.55900801    -0.97200
Zr823      Zr  0.50198413  0.57202264  0.54864559     1.88900
O824        O  0.44519479  0.59591540  0.53378293    -0.73800
O825        O  0.37677305  0.50288552  0.55968046    -0.53100
O826        O  0.47210719  0.59833554  0.55772616    -0.97700
O827        O  0.57457305  0.63601549  0.54662592    -0.55000
O828        O  0.48506094  0.62381082  0.54364742    -0.74300
C829        C  0.46484237  0.62679113  0.53835485     0.98000
O830        O  0.39296216  0.52724432  0.52249924    -0.63100
O831        O  0.56336634  0.48504071  0.52552667    -0.57900
O832        O  0.44731921  0.50653207  0.52126105    -0.94600
O833        O  0.51827055  0.52220979  0.52177572    -0.93100
O834        O  0.44972180  0.37600594  0.52697702    -0.93400
O835        O  0.37340640  0.37801340  0.52603340    -0.92200
C836        C  0.48292990  0.51184968  0.51839054     1.16900
H837        H  0.51206189  0.42863404  0.53826184     0.32800
H838        H  0.35693694  0.42956104  0.53688625     0.43700
H839        H  0.51674664  0.58836839  0.53379074     0.37200
H840        H  0.46633111  0.50741281  0.55937702     0.33700
H841        H  0.34909162  0.31342353  0.53649966     0.25500
H842        H  0.37291093  0.52509861  0.55709231     0.31400
H843        H  0.46276889  0.57613229  0.56146792     0.37300
H844        H  0.46938004  0.40285996  0.52429325     0.31800
H845        H  0.59371618  0.50939102  0.52465550     0.30600
H846        H  0.61264887  0.59705428  0.53568123     0.32300
H847        H  0.57313835  0.66112809  0.54874439     0.31300
H848        H  0.37138807  0.40419356  0.52466926     0.35300
H849        H  0.36618927  0.49827815  0.52165999     0.28000
H850        H  0.53816791  0.45148256  0.56390570     0.32200
H851        H  0.55510836  0.62212568  0.56028689     0.35100
H852        H  0.56711579  0.46278455  0.52812051     0.27700
H853        H  0.38181401  0.54728021  0.52381493     0.40600
H854        H  0.31026113  0.37984099  0.54804586     0.30600
H855        H  0.35163173  0.33238261  0.54398626     0.38300
H856        H  0.57584161  0.64142536  0.54156409     0.30100
H857        H  0.34707546  0.48211459  0.56150567     0.30200
H858        H  0.53151315  0.49228817  0.56504967     0.30400
Zr859      Zr  0.51708891  0.44294521  0.46440925     2.17500
O860        O  0.55973987  0.42864395  0.47296690    -0.51900
O861        O  0.49035254  0.36460398  0.46181713    -0.75100
O862        O  0.48701822  0.43091471  0.47635648    -0.81900
O863        O  0.61974892  0.50191279  0.45262901    -0.83700
O864        O  0.42000424  0.42582423  0.47587097    -0.79300
O865        O  0.59190317  0.46067920  0.46238048    -0.90900
O866        O  0.45797591  0.34934090  0.45120694    -0.76900
O867        O  0.44283422  0.40844025  0.46057363    -0.86400
O868        O  0.52017272  0.44147033  0.45196213    -0.86100
O869        O  0.49306105  0.49262412  0.46850806    -0.72800
O870        O  0.56256157  0.51817011  0.46040069    -0.85000
Zr871      Zr  0.45911441  0.52763383  0.44857101     2.26400
Zr872      Zr  0.41796692  0.45678958  0.46473350     2.06300
Zr873      Zr  0.56274299  0.51614338  0.44793372     2.10000
Zr874      Zr  0.44603955  0.40865065  0.44814002     1.78800
O875        O  0.63531017  0.58163711  0.44702754    -0.93800
O876        O  0.37400544  0.34237986  0.44919644    -0.41600
O877        O  0.48773811  0.48273158  0.44406991    -0.78200
O878        O  0.41631889  0.45258884  0.45230550    -0.96900
O879        O  0.46039938  0.53127211  0.46088474    -0.90200
O880        O  0.53498898  0.56239980  0.45194879    -0.93000
C881        C  0.47229477  0.33891236  0.45654456     1.00700
C882        C  0.62257747  0.48084672  0.45790853     1.13700
C883        C  0.45161145  0.42609846  0.47923727     1.04400
O884        O  0.35059136  0.38531816  0.46490158    -0.95200
O885        O  0.36104024  0.47109058  0.46088383    -0.90900
O886        O  0.38438133  0.51274706  0.45110817    -0.84100
C887        C  0.35525744  0.49114779  0.45579833     1.11100
O888        O  0.58648742  0.57673962  0.47369227    -0.97200
Zr889      Zr  0.53571656  0.56551838  0.46422625     1.88900
O890        O  0.47098988  0.59929359  0.45223737    -0.73800
O891        O  0.39625671  0.49108017  0.47379880    -0.53100
O892        O  0.51321657  0.58578211  0.47498179    -0.97700
O893        O  0.60719474  0.63044985  0.46192407    -0.55000
O894        O  0.51717013  0.62128918  0.46151992    -0.74300
C895        C  0.49268523  0.62653520  0.45715518     0.98000
O896        O  0.41575876  0.51843561  0.43808881    -0.63100
O897        O  0.57777120  0.48340229  0.43783914    -0.57900
O898        O  0.50223646  0.56697960  0.43852145    -0.94600
O899        O  0.56325093  0.55990262  0.43787176    -0.93100
O900        O  0.47638988  0.39496602  0.43764905    -0.93400
O901        O  0.39803119  0.39641886  0.43823581    -0.92200
C902        C  0.53790555  0.57387781  0.43554532     1.16900
H903        H  0.53347289  0.42444938  0.45043366     0.32800
H904        H  0.38646337  0.43937438  0.45060717     0.43700
H905        H  0.55164411  0.59178635  0.45004763     0.37200
H906        H  0.49565443  0.49833563  0.47344073     0.33700
H907        H  0.37451686  0.32121431  0.44580641     0.25500
H908        H  0.37418549  0.46637708  0.47664480     0.31400
H909        H  0.48460470  0.58355354  0.47388578     0.37300
H910        H  0.45669916  0.36322679  0.43661276     0.31800
H911        H  0.57495593  0.45543291  0.43952390     0.30600
H912        H  0.65114549  0.57348288  0.44359305     0.32300
H913        H  0.60203222  0.64659237  0.45817425     0.31300
H914        H  0.40316600  0.42613419  0.43706372     0.35300
H915        H  0.42911496  0.50932530  0.43436079     0.28000
H916        H  0.53886423  0.40034403  0.47520794     0.32200
H917        H  0.59692763  0.60707456  0.47543567     0.35100
H918        H  0.55208994  0.47420775  0.43474165     0.27700
H919        H  0.38685378  0.49159747  0.43886031     0.40600
H920        H  0.33641363  0.38482737  0.46938283     0.30600
H921        H  0.37437311  0.33000208  0.45379664     0.38300
H922        H  0.62469106  0.61865115  0.45970279     0.30100
H923        H  0.42242583  0.50651034  0.47684605     0.30200
H924        H  0.56798387  0.45141923  0.47664099     0.30400
Zr925      Zr  0.49450501  0.05622068  0.55508047     2.17500
O926        O  0.47147495  0.08116634  0.56527436    -0.51900
O927        O  0.56743837  0.11863514  0.55396588    -0.75100
O928        O  0.53148920  0.05100909  0.56554821    -0.81900
O929        O  0.44324955  0.09603165  0.54183151    -0.83700
O930        O  0.52504997  0.98306392  0.56561107    -0.79300
O931        O  0.47767896  0.11463336  0.55233422    -0.90900
O932        O  0.60279273  0.10129930  0.54571516    -0.76900
O933        O  0.53450883  0.01932162  0.55251878    -0.86400
O934        O  0.51050877  0.06608626  0.54292762    -0.86100
O935        O  0.44703784  0.98036116  0.55823393    -0.72800
O936        O  0.42519515  0.02469419  0.54915849    -0.85000
Zr937      Zr  0.43217176  0.91965902  0.53726752     2.26400
Zr938      Zr  0.48650907  0.94329714  0.55516370     2.06300
Zr939      Zr  0.44125140  0.03176483  0.53701806     2.10000
Zr940      Zr  0.55092205  0.02972887  0.54052339     1.78800
O941        O  0.36829884  0.01850516  0.53390397    -0.93800
O942        O  0.61147513  0.01975121  0.54438155    -0.41600
O943        O  0.48185818  0.99554140  0.53451215    -0.78200
O944        O  0.50344469  0.95250775  0.54299702    -0.96900
O945        O  0.41681105  0.91064032  0.54942916    -0.90200
O946        O  0.39202623  0.95638587  0.53980496    -0.93000
C947        C  0.60140837  0.12742026  0.55032692     1.00700
C948        C  0.45782763  0.12092049  0.54720993     1.13700
C949        C  0.53833407  0.02143332  0.56828714     1.04400
O950        O  0.54859196  0.93262630  0.55764453    -0.95200
O951        O  0.47704088  0.87386071  0.55081839    -0.90900
O952        O  0.45229126  0.86407791  0.53969560    -0.84100
C953        C  0.46605442  0.85261661  0.54502023     1.11100
O954        O  0.36043471  0.97711455  0.56245889    -0.97200
Zr955      Zr  0.37859694  0.94921894  0.55206765     1.88900
O956        O  0.35265262  0.86403606  0.53796600    -0.73800
O957        O  0.44378553  0.89272209  0.56443812    -0.53100
O958        O  0.34384682  0.89095464  0.56068845    -0.97700
O959        O  0.32160031  0.96757113  0.54949506    -0.55000
O960        O  0.32186516  0.88385198  0.54663351    -0.74300
C961        C  0.31959871  0.85796357  0.54173824     0.98000
O962        O  0.42049017  0.86540028  0.52824037    -0.63100
O963        O  0.47446015  0.09152443  0.52859199    -0.57900
O964        O  0.44186552  0.94756114  0.52526673    -0.94600
O965        O  0.43712061  0.00976511  0.52502461    -0.93100
O966        O  0.57853236  0.07943126  0.53062840    -0.93400
O967        O  0.58117252  0.00581121  0.53115614    -0.92200
C968        C  0.44141310  0.97941740  0.52201317     1.16900
H969        H  0.52713601  0.09698068  0.54171059     0.32800
H970        H  0.51944981  0.93782811  0.54166876     0.43700
H971        H  0.36540401  0.94482317  0.53708453     0.37200
H972        H  0.44159574  0.97828958  0.56317727     0.33700
H973        H  0.63825867  0.04564624  0.54253207     0.25500
H974        H  0.46468772  0.88555740  0.56672589     0.31400
H975        H  0.35602195  0.87124959  0.55979987     0.37300
H976        H  0.55219998  0.07889951  0.52866676     0.31800
H977        H  0.45265941  0.10129091  0.52792919     0.30600
H978        H  0.37323782  0.04735735  0.53224191     0.32300
H979        H  0.30959451  0.95387243  0.54490752     0.31300
H980        H  0.55589399  0.97785498  0.52944708     0.35300
H981        H  0.39736800  0.86404143  0.52512969     0.28000
H982        H  0.49909376  0.10499589  0.56733963     0.32200
H983        H  0.32843605  0.95741524  0.56317591     0.35100
H984        H  0.49937242  0.11634784  0.53105623     0.27700
H985        H  0.44769552  0.87852487  0.52540375     0.40600
H986        H  0.56818559  0.94496898  0.55356411     0.30600
H987        H  0.61322815  0.02489134  0.54946805     0.38300
H988        H  0.33775522  0.99970099  0.54858273     0.30100
H989        H  0.43911935  0.91106435  0.56789333     0.30200
H990        H  0.46078172  0.05655144  0.56862706     0.30400
Zr991      Zr  0.50177196  0.03926184  0.46701019     2.17500
O992        O  0.51119931  0.09599175  0.47542079    -0.51900
O993        O  0.58136935  0.09001242  0.46528165    -0.75100
O994        O  0.51099328  0.02262952  0.47907809    -0.81900
O995        O  0.45614636  0.08729668  0.45349085    -0.83700
O996        O  0.50699888  0.95586751  0.47946311    -0.79300
O997        O  0.48940016  0.09945898  0.46404600    -0.90900
O998        O  0.60094142  0.06560318  0.45575861    -0.76900
O999        O  0.53386229  0.99502111  0.46431463    -0.86400
O1000       O  0.51025604  0.04213503  0.45468209    -0.86100
O1001       O  0.44743523  0.96628165  0.47087066    -0.72800
O1002       O  0.42915492  0.01145419  0.46204480    -0.85000
Zr1003     Zr  0.41972054  0.89631459  0.45097469     2.26400
Zr1004     Zr  0.48080925  0.92235291  0.46813413     2.06300
Zr1005     Zr  0.43848331  0.01341520  0.44965996     2.10000
Zr1006     Zr  0.54083902  0.99678590  0.45195255     1.78800
O1007       O  0.37298819  0.01959236  0.44797406    -0.93800
O1008       O  0.60021773  0.98225745  0.45464207    -0.41600
O1009       O  0.47005958  0.96854048  0.44675965    -0.78200
O1010       O  0.49149228  0.92375606  0.45584184    -0.96900
O1011       O  0.40927007  0.89345566  0.46318390    -0.90200
O1012       O  0.38686599  0.94029390  0.45336474    -0.93000
C1013       C  0.60956034  0.09353968  0.46065058     1.00700
C1014       C  0.47421003  0.11122944  0.45893431     1.13700
C1015       C  0.51121724  0.99081222  0.48237448     1.04400
O1016       O  0.55051834  0.92367813  0.46938349    -0.95200
O1017       O  0.46034652  0.84780279  0.46443342    -0.90900
O1018       O  0.42103486  0.83080228  0.45438786    -0.84100
C1019       C  0.43915794  0.82153117  0.45936927     1.11100
O1020       O  0.35498961  0.97445616  0.47413721    -0.97200
Zr1021     Zr  0.37680939  0.93744103  0.46555266     1.88900
O1022       O  0.34444306  0.83970848  0.45305262    -0.73800
O1023       O  0.44598127  0.86746953  0.47727321    -0.53100
O1024       O  0.35402020  0.89760051  0.47651174    -0.97700
O1025       O  0.31562806  0.94659209  0.46170674    -0.55000
O1026       O  0.32109470  0.86234397  0.46239679    -0.74300
C1027       C  0.31600011  0.83357673  0.45774916     0.98000
O1028       O  0.43753885  0.86134582  0.44145720    -0.63100
O1029       O  0.47908736  0.06090254  0.43994649    -0.57900
O1030       O  0.39083908  0.90296634  0.44000191    -0.94600
O1031       O  0.40249684  0.97281900  0.43896268    -0.93100
O1032       O  0.56380710  0.04251763  0.44157152    -0.93400
O1033       O  0.55838720  0.96184334  0.44244987    -0.92200
C1034       C  0.38858026  0.93332272  0.43665649     1.16900
H1035       H  0.52938889  0.07211968  0.45316383     0.32800
H1036       H  0.50336900  0.90508746  0.45453697     0.43700
H1037       H  0.35908047  0.92893561  0.45095126     0.37200
H1038       H  0.44060680  0.96506101  0.47575122     0.33700
H1039       H  0.62601846  0.00502458  0.45206395     0.25500
H1040       H  0.47026013  0.86483106  0.47939420     0.31400
H1041       H  0.36461523  0.87619201  0.47624675     0.37300
H1042       H  0.59604560  0.05472261  0.44130990     0.31800
H1043       H  0.45874452  0.06971596  0.43791272     0.30600
H1044       H  0.37595111  0.03144486  0.44321855     0.32300
H1045       H  0.30066043  0.92436403  0.45798224     0.31300
H1046       H  0.53687110  0.95712822  0.43874570     0.35300
H1047       H  0.45065888  0.88405946  0.43778940     0.28000
H1048       H  0.53903781  0.10466380  0.47792286     0.32200
H1049       H  0.32395815  0.95306827  0.47530594     0.35100
H1050       H  0.50281075  0.08829012  0.44209368     0.27700
H1051       H  0.46274290  0.85864990  0.44314245     0.40600
H1052       H  0.54791770  0.89968012  0.46631139     0.30600
H1053       H  0.60733944  0.99084171  0.45958924     0.38300
H1054       H  0.32965917  0.97533839  0.45929147     0.30100
H1055       H  0.43704150  0.88155553  0.48091099     0.30200
H1056       H  0.48760269  0.08096198  0.47892058     0.30400
Zr1057     Zr  0.89499684  0.46130259  0.55524666     2.17500
O1058       O  0.86883474  0.42050692  0.56609057    -0.51900
O1059       O  0.83440258  0.47366143  0.55330047    -0.75100
O1060       O  0.90322056  0.51091804  0.56492691    -0.81900
O1061       O  0.85255068  0.35884052  0.54398280    -0.83700
O1062       O  0.97160667  0.57134331  0.56414118    -0.79300
O1063       O  0.83593005  0.38411566  0.55380194    -0.90900
O1064       O  0.85248986  0.51877755  0.54395383    -0.76900
O1065       O  0.93451768  0.53605278  0.55137933    -0.86400
O1066       O  0.88407393  0.45887868  0.54294742    -0.86100
O1067       O  0.97069253  0.48930929  0.55841972    -0.72800
O1068       O  0.92358081  0.41764874  0.55042725    -0.85000
Zr1069     Zr  0.02883192  0.51667524  0.53718816     2.26400
Zr1070     Zr  0.01031818  0.56351946  0.55409527     2.06300
Zr1071     Zr  0.91471618  0.41707026  0.53811185     2.10000
Zr1072     Zr  0.92328579  0.53359502  0.53923296     1.78800
O1073       O  0.92328709  0.35279083  0.53636580    -0.93800
O1074       O  0.93516098  0.60710576  0.54175488    -0.41600
O1075       O  0.95348874  0.49155623  0.53435146    -0.78200
O1076       O  0.00030123  0.56233644  0.54172933    -0.96900
O1077       O  0.03933738  0.51957764  0.54946485    -0.90200
O1078       O  0.98971534  0.44222650  0.54103637    -0.93000
C1079       C  0.82636647  0.49606838  0.54891273     1.00700
C1080       C  0.82908526  0.35338056  0.54939071     1.13700
C1081       C  0.93370454  0.54900522  0.56709388     1.04400
O1082       O  0.02350449  0.63866005  0.55474792    -0.95200
O1083       O  0.08155230  0.61860500  0.54924068    -0.90900
O1084       O  0.08980911  0.59121516  0.53895469    -0.84100
C1085       C  0.10305260  0.62133984  0.54364921     1.11100
O1086       O  0.97110034  0.40242590  0.56404563    -0.97200
Zr1087     Zr  0.99866416  0.44535819  0.55340647     1.88900
O1088       O  0.08120772  0.48986482  0.53875534    -0.73800
O1089       O  0.05881480  0.57419347  0.56385714    -0.53100
O1090       O  0.05428646  0.47703852  0.56252123    -0.97700
O1091       O  0.97945967  0.36841939  0.55195045    -0.55000
O1092       O  0.06424336  0.45038114  0.54871400    -0.74300
C1093       C  0.08839795  0.46763403  0.54336531     0.98000
O1094       O  0.07597453  0.54523675  0.52695262    -0.63100
O1095       O  0.85173707  0.38752038  0.53023371    -0.57900
O1096       O  0.00086412  0.49079416  0.52534835    -0.94600
O1097       O  0.93607639  0.42612190  0.52594752    -0.93100
O1098       O  0.87397875  0.50890653  0.52924347    -0.93400
O1099       O  0.94904707  0.57943254  0.52887894    -0.92200
C1100       C  0.96753146  0.45731742  0.52249877     1.16900
H1101       H  0.85320878  0.44492436  0.54176339     0.32800
H1102       H  0.01640343  0.59178160  0.53986127     0.43700
H1103       H  0.99992976  0.42427484  0.53877899     0.37200
H1104       H  0.97335530  0.48954933  0.56341771     0.33700
H1105       H  0.91261727  0.60921348  0.53895778     0.25500
H1106       H  0.08687055  0.58005343  0.56169931     0.31400
H1107       H  0.06705991  0.45745544  0.56277801     0.37300
H1108       H  0.87258588  0.48113288  0.52773497     0.31800
H1109       H  0.84174260  0.35566244  0.52980495     0.30600
H1110       H  0.89495391  0.33007425  0.53433102     0.32300
H1111       H  0.99079640  0.36679020  0.54730616     0.31300
H1112       H  0.96361861  0.56661293  0.52606299     0.35300
H1113       H  0.07649950  0.57297216  0.52574415     0.28000
H1114       H  0.84692223  0.42791673  0.56793225     0.32200
H1115       H  0.99210164  0.39226277  0.56518032     0.35100
H1116       H  0.82797405  0.38861906  0.53285059     0.27700
H1117       H  0.10620249  0.55460354  0.52857088     0.40600
H1118       H  0.01506100  0.64407889  0.55010538     0.30600
H1119       H  0.92530014  0.60564699  0.54662351     0.38300
H1120       H  0.94703087  0.35193949  0.55140653     0.30100
H1121       H  0.06540023  0.60287540  0.56591324     0.30200
H1122       H  0.89408707  0.43489315  0.56933895     0.30400
Zr1123     Zr  0.90518875  0.43161347  0.46644427     2.17500
O1124       O  0.84487140  0.39289159  0.47468734    -0.51900
O1125       O  0.85682823  0.46246100  0.46377710    -0.75100
O1126       O  0.92381067  0.46015606  0.47849228    -0.81900
O1127       O  0.85721755  0.32817060  0.45473904    -0.83700
O1128       O  0.99213059  0.52086123  0.47850443    -0.79300
O1129       O  0.84725272  0.35611146  0.46482542    -0.90900
O1130       O  0.88074857  0.50356135  0.45398782    -0.76900
O1131       O  0.95004639  0.50617548  0.46297654    -0.86400
O1132       O  0.90033975  0.43099346  0.45404249    -0.86100
O1133       O  0.97777409  0.44970571  0.47031485    -0.72800
O1134       O  0.93108433  0.38336018  0.46208340    -0.85000
Zr1135     Zr  0.04561828  0.48160572  0.45018864     2.26400
Zr1136     Zr  0.02219937  0.52520058  0.46691979     2.06300
Zr1137     Zr  0.92709706  0.38445374  0.44965380     2.10000
Zr1138     Zr  0.94690291  0.50537244  0.45054234     1.78800
O1139       O  0.91256292  0.30984565  0.44732382    -0.93800
O1140       O  0.96758392  0.58215960  0.45259447    -0.41600
O1141       O  0.97307020  0.45911643  0.44598959    -0.78200
O1142       O  0.01937972  0.52859435  0.45449517    -0.96900
O1143       O  0.04980129  0.47974143  0.46250808    -0.90200
O1144       O  0.00013906  0.40607129  0.45341238    -0.93000
C1145       C  0.85357024  0.48641449  0.45899148     1.00700
C1146       C  0.83516781  0.32530120  0.46027888     1.13700
C1147       C  0.95693639  0.49232202  0.48162081     1.04400
O1148       O  0.02221109  0.59432246  0.46846186    -0.95200
O1149       O  0.09304764  0.58015933  0.46243703    -0.90900
O1150       O  0.11022146  0.55341587  0.45284662    -0.84100
C1151       C  0.11874431  0.58379221  0.45740418     1.11100
O1152       O  0.96482090  0.35264570  0.47495580    -0.97200
Zr1153     Zr  0.00477507  0.40460520  0.46565452     1.88900
O1154       O  0.10107959  0.46278795  0.45303802    -0.73800
O1155       O  0.08037626  0.54375945  0.47542059    -0.53100
O1156       O  0.04516509  0.42512681  0.47661522    -0.97700
O1157       O  0.99307645  0.33147160  0.46281670    -0.55000
O1158       O  0.07858309  0.41945514  0.46262486    -0.74300
C1159       C  0.10697150  0.44116866  0.45786307     0.98000
O1160       O  0.07681773  0.52348723  0.43953318    -0.63100
O1161       O  0.87687006  0.37882529  0.44045640    -0.57900
O1162       O  0.03851419  0.43739441  0.43996656    -0.94600
O1163       O  0.96734337  0.38163264  0.43932065    -0.93100
O1164       O  0.89895315  0.48022013  0.44038288    -0.93400
O1165       O  0.98232669  0.55004076  0.44031925    -0.92200
C1166       C  0.00707521  0.40331312  0.43694995     1.16900
H1167       H  0.87029556  0.42003711  0.45255131     0.32800
H1168       H  0.03763812  0.55839379  0.45286644     0.43700
H1169       H  0.01039424  0.38764418  0.45132673     0.37200
H1170       H  0.97969271  0.44559961  0.47521937     0.33700
H1171       H  0.95009638  0.58818806  0.44919704     0.25500
H1172       H  0.08122246  0.56780641  0.47827814     0.31400
H1173       H  0.06286727  0.41025071  0.47652924     0.37300
H1174       H  0.89313091  0.50451103  0.43933705     0.31800
H1175       H  0.89518946  0.38878387  0.43620444     0.30600
H1176       H  0.89270166  0.29977082  0.44323663     0.32300
H1177       H  0.01714402  0.33655140  0.45958350     0.31300
H1178       H  0.01333758  0.55709018  0.44060999     0.35300
H1179       H  0.05124436  0.51436193  0.43640890     0.28000
H1180       H  0.83955161  0.41569433  0.47679443     0.32200
H1181       H  0.98269647  0.33896859  0.47618483     0.35100
H1182       H  0.85717970  0.34671004  0.43974772     0.27700
H1183       H  0.08622049  0.55455913  0.44069923     0.40600
H1184       H  0.05014037  0.61397791  0.47092179     0.30600
H1185       H  0.95451351  0.58222739  0.45716005     0.38300
H1186       H  0.96617479  0.31769223  0.45990505     0.30100
H1187       H  0.06855915  0.51803018  0.47856649     0.30200
H1188       H  0.85668620  0.38293435  0.47850627     0.30400
Zr1189     Zr  0.17469303  0.25916567  0.28131978     2.17500
O1190       O  0.12578138  0.22853713  0.27129044    -0.51900
O1191       O  0.19086217  0.19967739  0.28206741    -0.75100
O1192       O  0.21426329  0.27194485  0.27049101    -0.81900
O1193       O  0.07839460  0.21224976  0.29371300    -0.83700
O1194       O  0.27564792  0.33977216  0.27054072    -0.79300
O1195       O  0.10009464  0.20014219  0.28319237    -0.90900
O1196       O  0.23725580  0.21423914  0.29116719    -0.76900
O1197       O  0.25093721  0.29788039  0.28412645    -0.86400
O1198       O  0.17834209  0.24609114  0.29337066    -0.86100
O1199       O  0.19971494  0.33472358  0.27852785    -0.72800
O1200       O  0.13279901  0.28626806  0.28719132    -0.85000
Zr1201     Zr  0.23901643  0.39026724  0.29973471     2.26400
Zr1202     Zr  0.27596974  0.37388240  0.28176592     2.06300
Zr1203     Zr  0.13880364  0.27574855  0.29929773     2.10000
Zr1204     Zr  0.25470795  0.28538207  0.29614268     1.78800
O1205       O  0.07593077  0.28405310  0.30239188    -0.93800
O1206       O  0.32555901  0.29575161  0.29233920    -0.41600
O1207       O  0.21522309  0.31461952  0.30218425    -0.78200
O1208       O  0.28164817  0.36245396  0.29395525    -0.96900
O1209       O  0.23477339  0.40203083  0.28763950    -0.90200
O1210       O  0.16264301  0.35154505  0.29693019    -0.93000
C1211       C  0.21360665  0.18974157  0.28610623     1.00700
C1212       C  0.07143427  0.19048637  0.28801422     1.13700
C1213       C  0.24928140  0.30241905  0.26762074     1.04400
O1214       O  0.34927370  0.38342914  0.28041607    -0.95200
O1215       O  0.32985295  0.44682914  0.28622984    -0.90900
O1216       O  0.31199275  0.45157185  0.29742700    -0.84100
C1217       C  0.33714255  0.46709067  0.29211396     1.11100
O1218       O  0.10737166  0.33369560  0.27499415    -0.97200
Zr1219     Zr  0.15873170  0.36183151  0.28472537     1.88900
O1220       O  0.21785785  0.44732285  0.29893771    -0.73800
O1221       O  0.28436195  0.42467149  0.27251128    -0.53100
O1222       O  0.18014000  0.41446915  0.27524046    -0.97700
O1223       O  0.08463853  0.34585300  0.28772370    -0.55000
O1224       O  0.17158866  0.42996449  0.28976472    -0.74300
C1225       C  0.19405555  0.45537317  0.29477605     0.98000
O1226       O  0.27724050  0.42998334  0.31028699    -0.63100
O1227       O  0.11219842  0.21244816  0.30701608    -0.57900
O1228       O  0.21362501  0.36562627  0.31161394    -0.94600
O1229       O  0.15479115  0.29618580  0.31145493    -0.93100
O1230       O  0.23326805  0.23844973  0.30638467    -0.93400
O1231       O  0.31117089  0.31129396  0.30513328    -0.92200
C1232       C  0.18396143  0.33066186  0.31468337     1.16900
H1233       H  0.16496916  0.21494232  0.29434880     0.32800
H1234       H  0.31208072  0.37884905  0.29542934     0.43700
H1235       H  0.14669148  0.36214309  0.29966906     0.37200
H1236       H  0.19676081  0.33769948  0.27359892     0.33700
H1237       H  0.32567425  0.26884819  0.29387615     0.25500
H1238       H  0.27914334  0.44709463  0.27478917     0.31400
H1239       H  0.15878422  0.42513066  0.27541597     0.37300
H1240       H  0.20082994  0.21998736  0.30607741     0.31800
H1241       H  0.08119378  0.20376035  0.30800515     0.30600
H1242       H  0.05123376  0.25353531  0.30301055     0.32300
H1243       H  0.08680343  0.35690064  0.29253933     0.31300
H1244       H  0.31509221  0.34016043  0.30663498     0.35300
H1245       H  0.30579600  0.43063768  0.31028831     0.28000
H1246       H  0.13295796  0.20713462  0.26913269     0.32200
H1247       H  0.11228052  0.31079463  0.27282214     0.35100
H1248       H  0.11035448  0.18809988  0.30411773     0.27700
H1249       H  0.28475110  0.46098687  0.30957632     0.40600
H1250       H  0.35861008  0.38140250  0.28518869     0.30600
H1251       H  0.32338690  0.29305525  0.28720933     0.38300
H1252       H  0.06730250  0.31331245  0.28814267     0.30100
H1253       H  0.31624652  0.44052228  0.27144232     0.30200
H1254       H  0.13574291  0.25287551  0.26789859     0.30400
Zr1255     Zr  0.10187339  0.24783560  0.37114990     2.17500
O1256       O  0.04323778  0.20825289  0.36265149    -0.51900
O1257       O  0.12299838  0.19082807  0.37145056    -0.75100
O1258       O  0.12836567  0.25980398  0.35912037    -0.81900
O1259       O  0.01398268  0.20305582  0.38510641    -0.83700
O1260       O  0.19138279  0.32614576  0.35878586    -0.79300
O1261       O  0.03128788  0.18701722  0.37450321    -0.90900
O1262       O  0.17334692  0.20981655  0.38007959    -0.76900
O1263       O  0.17885836  0.28392220  0.37333273    -0.86400
O1264       O  0.10981623  0.24005289  0.38329787    -0.86100
O1265       O  0.12754084  0.32315096  0.36794713    -0.72800
O1266       O  0.06577245  0.28207707  0.37708038    -0.85000
Zr1267     Zr  0.18056713  0.38615309  0.38851361     2.26400
Zr1268     Zr  0.20477792  0.35905652  0.37029205     2.06300
Zr1269     Zr  0.07432857  0.27395453  0.38922922     2.10000
Zr1270     Zr  0.18677325  0.27733206  0.38550467     1.78800
O1271       O  0.00257599  0.26673127  0.39136604    -0.93800
O1272       O  0.25986107  0.29373977  0.38176906    -0.41600
O1273       O  0.15158144  0.31042601  0.39184510    -0.78200
O1274       O  0.21608620  0.35248805  0.38241781    -0.96900
O1275       O  0.17185931  0.39458782  0.37643983    -0.90200
O1276       O  0.10328876  0.34974189  0.38622829    -0.93000
C1277       C  0.14943864  0.18409901  0.37519069     1.00700
C1278       C  0.00554826  0.17788217  0.37973181     1.13700
C1279       C  0.16088721  0.29115591  0.35584269     1.04400
O1280       O  0.27093600  0.35740029  0.36694239    -0.95200
O1281       O  0.26658764  0.42738223  0.37423798    -0.90900
O1282       O  0.25430294  0.44563172  0.38505225    -0.84100
C1283       C  0.27840786  0.45279065  0.37958836     1.11100
O1284       O  0.03681835  0.33262121  0.36556708    -0.97200
Zr1285     Zr  0.09516797  0.35870761  0.37426461     1.88900
O1286       O  0.17019579  0.44908360  0.38738395    -0.73800
O1287       O  0.21761987  0.41570648  0.36180662    -0.53100
O1288       O  0.12065634  0.40552132  0.36400852    -0.97700
O1289       O  0.02714469  0.35455541  0.37824183    -0.55000
O1290       O  0.12019330  0.43297611  0.37874740    -0.74300
C1291       C  0.14730921  0.45903210  0.38338204     0.98000
O1292       O  0.23199216  0.41064942  0.39825592    -0.63100
O1293       O  0.06732787  0.22372186  0.39850004    -0.57900
O1294       O  0.14183516  0.38164114  0.39938435    -0.94600
O1295       O  0.07819324  0.31533346  0.39979199    -0.93100
O1296       O  0.16776442  0.22371270  0.39479841    -0.93400
O1297       O  0.23948693  0.30392330  0.39505820    -0.92200
C1298       C  0.10538810  0.35366767  0.40233724     1.16900
H1299       H  0.09641544  0.20929200  0.38453672     0.32800
H1300       H  0.24710981  0.36751282  0.38351138     0.43700
H1301       H  0.08911756  0.36282778  0.38884149     0.37200
H1302       H  0.12176166  0.32531292  0.36309884     0.33700
H1303       H  0.26198222  0.26768907  0.38317553     0.25500
H1304       H  0.24351626  0.41992013  0.35911235     0.31400
H1305       H  0.14755604  0.43266895  0.36554127     0.37300
H1306       H  0.13853755  0.19860580  0.39352790     0.31800
H1307       H  0.09557576  0.23938888  0.40106103     0.30600
H1308       H  0.98921253  0.24417377  0.39505330     0.32300
H1309       H  0.03556654  0.37454723  0.38232165     0.31300
H1310       H  0.23035844  0.32100967  0.39805968     0.35300
H1311       H  0.21736204  0.38760431  0.40184250     0.28000
H1312       H  0.05260099  0.19094672  0.35974643     0.32200
H1313       H  0.03469462  0.35882569  0.36425753     0.35100
H1314       H  0.04537840  0.22386609  0.40172867     0.27700
H1315       H  0.25668955  0.40683104  0.39662756     0.40600
H1316       H  0.28985719  0.38606976  0.36464054     0.30600
H1317       H  0.25823334  0.29196119  0.37663028     0.38300
H1318       H  0.00964844  0.32455603  0.38020508     0.30100
H1319       H  0.19271869  0.40142802  0.35849426     0.30200
H1320       H  0.04431781  0.23118060  0.35952931     0.30400
Zr1321     Zr  0.14621165  0.84885981  0.28155306     2.17500
O1322       O  0.16389633  0.89880710  0.27174580    -0.51900
O1323       O  0.07403215  0.83985324  0.28337742    -0.75100
O1324       O  0.11023484  0.80688799  0.27091414    -0.81900
O1325       O  0.20843075  0.94263491  0.29445496    -0.83700
O1326       O  0.11163421  0.74270351  0.27125727    -0.79300
O1327       O  0.17200335  0.92683677  0.28413592    -0.90900
O1328       O  0.04151738  0.79160613  0.29224868    -0.76900
O1329       O  0.10558727  0.77213354  0.28419528    -0.86400
O1330       O  0.13301855  0.84384715  0.29379067    -0.86100
O1331       O  0.19142251  0.81869812  0.27797980    -0.72800
O1332       O  0.21664727  0.88449564  0.28712661    -0.85000
Zr1333     Zr  0.20979024  0.77260976  0.29868520     2.26400
Zr1334     Zr  0.15183510  0.74238739  0.28125189     2.06300
Zr1335     Zr  0.20329925  0.87718372  0.29939514     2.10000
Zr1336     Zr  0.09172259  0.76711053  0.29627006     1.78800
O1337       O  0.27577454  0.93203501  0.30368456    -0.93800
O1338       O  0.02852970  0.69868938  0.29216064    -0.41600
O1339       O  0.16215710  0.80058616  0.30172102    -0.78200
O1340       O  0.13703775  0.73513495  0.29346249    -0.96900
O1341       O  0.22286150  0.77779136  0.28649540    -0.90200
O1342       O  0.25083355  0.84945487  0.29608154    -0.93000
C1343       C  0.04197235  0.81790463  0.28756311     1.00700
C1344       C  0.19474339  0.95365781  0.28907840     1.13700
C1345       C  0.10072344  0.76879362  0.26842531     1.04400
O1346       O  0.08803181  0.67015084  0.27891177    -0.95200
O1347       O  0.16098068  0.68141235  0.28493782    -0.90900
O1348       O  0.18832556  0.69656023  0.29590400    -0.84100
C1349       C  0.17351031  0.67128949  0.29055111     1.11100
O1350       O  0.28976306  0.90549258  0.27400229    -0.97200
Zr1351     Zr  0.26126158  0.85417678  0.28372043     1.88900
O1352       O  0.28771985  0.79317043  0.29732428    -0.73800
O1353       O  0.19260018  0.73665901  0.27142367    -0.53100
O1354       O  0.28196203  0.82491602  0.27376099    -0.97700
O1355       O  0.32185935  0.92719544  0.28675653    -0.55000
O1356       O  0.31479318  0.83715024  0.28789748    -0.74300
C1357       C  0.31828047  0.81502599  0.29284187     0.98000
O1358       O  0.22466684  0.73632950  0.30824685    -0.63100
O1359       O  0.17055263  0.90737460  0.30733816    -0.57900
O1360       O  0.20258842  0.78956064  0.31086818    -0.94600
O1361       O  0.19952621  0.85273518  0.31131939    -0.93100
O1362       O  0.07137041  0.79045880  0.30691978    -0.93400
O1363       O  0.05988592  0.71203013  0.30540522    -0.92200
C1364       C  0.19874738  0.81941644  0.31423786     1.16900
H1365       H  0.11768122  0.85911453  0.29518651     0.32800
H1366       H  0.12085339  0.70440474  0.29477290     0.43700
H1367       H  0.27839476  0.86413980  0.29858930     0.37200
H1368       H  0.19574583  0.82134300  0.27300690     0.33700
H1369       H  0.00257832  0.70115591  0.29350542     0.25500
H1370       H  0.21626739  0.73300971  0.27354459     0.31400
H1371       H  0.31331367  0.83398138  0.27448089     0.37300
H1372       H  0.09812769  0.81828395  0.30827243     0.31800
H1373       H  0.19379708  0.93839953  0.30814984     0.30600
H1374       H  0.28361559  0.95908924  0.30101647     0.32300
H1375       H  0.34041298  0.92188400  0.29003457     0.31300
H1376       H  0.08511109  0.71012740  0.30729820     0.35300
H1377       H  0.19625481  0.70937176  0.30925782     0.28000
H1378       H  0.13539379  0.89019999  0.26947236     0.32200
H1379       H  0.32060209  0.91243441  0.27335721     0.35100
H1380       H  0.14769955  0.90942686  0.30462697     0.27700
H1381       H  0.24354877  0.72536531  0.30627832     0.40600
H1382       H  0.07211164  0.66102139  0.28339496     0.30600
H1383       H  0.02952199  0.70093114  0.28702769     0.38300
H1384       H  0.30820843  0.94059811  0.28964961     0.30100
H1385       H  0.17235712  0.70750911  0.26931545     0.30200
H1386       H  0.17974079  0.89004507  0.26841320     0.30400
Zr1387     Zr  0.15605033  0.87837936  0.36958349     2.17500
O1388       O  0.16958693  0.93236640  0.36051366    -0.51900
O1389       O  0.07873182  0.86027412  0.37051537    -0.75100
O1390       O  0.13992428  0.84819639  0.35778373    -0.81900
O1391       O  0.20482152  0.97144201  0.38288565    -0.83700
O1392       O  0.14697855  0.78724116  0.35750952    -0.79300
O1393       O  0.17057465  0.95191272  0.37238331    -0.90900
O1394       O  0.05132997  0.81803017  0.38012601    -0.76900
O1395       O  0.11439013  0.80204387  0.37235272    -0.86400
O1396       O  0.14251374  0.87483495  0.38177412    -0.86100
O1397       O  0.20464575  0.85066255  0.36655768    -0.72800
O1398       O  0.22791684  0.91535845  0.37502027    -0.85000
Zr1399     Zr  0.21621490  0.80253496  0.38731610     2.26400
Zr1400     Zr  0.16177447  0.77386272  0.36932695     2.06300
Zr1401     Zr  0.21307195  0.91076661  0.38719780     2.10000
Zr1402     Zr  0.10282890  0.79874863  0.38463906     1.78800
O1403       O  0.28102316  0.98072983  0.38885787    -0.93800
O1404       O  0.03725898  0.72914856  0.38161026    -0.41600
O1405       O  0.17211223  0.83459936  0.39047889    -0.78200
O1406       O  0.14628455  0.76659897  0.38153138    -0.96900
O1407       O  0.23123605  0.80739811  0.37516187    -0.90200
O1408       O  0.25823249  0.87928951  0.38456298    -0.93000
C1409       C  0.04795958  0.83919811  0.37500138     1.00700
C1410       C  0.18828078  0.97898795  0.37746574     1.13700
C1411       C  0.14163281  0.81695221  0.35451907     1.04400
O1412       O  0.08783423  0.71158256  0.36761286    -0.95200
O1413       O  0.16896644  0.71298838  0.37347274    -0.90900
O1414       O  0.20062291  0.72757541  0.38418859    -0.84100
C1415       C  0.18269426  0.70209267  0.37886595     1.11100
O1416       O  0.30651207  0.93905234  0.36346340    -0.97200
Zr1417     Zr  0.27363409  0.88349868  0.37254909     1.88900
O1418       O  0.28935729  0.81302623  0.38646236    -0.73800
O1419       O  0.19435778  0.74588836  0.36095778    -0.53100
O1420       O  0.29492834  0.85722320  0.36231710    -0.97700
O1421       O  0.33766465  0.95208474  0.37643220    -0.55000
O1422       O  0.32119654  0.85651237  0.37704554    -0.74300
C1423       C  0.32095518  0.83242187  0.38210991     0.98000
O1424       O  0.18788261  0.75114889  0.39702639    -0.63100
O1425       O  0.17496520  0.92599622  0.39646784    -0.57900
O1426       O  0.24835932  0.84273720  0.39822003    -0.94600
O1427       O  0.24523632  0.90618110  0.39800464    -0.93100
O1428       O  0.08467913  0.82553876  0.39513882    -0.93400
O1429       O  0.07431965  0.74542172  0.39407403    -0.92200
C1430       C  0.25522881  0.87950833  0.40092459     1.16900
H1431       H  0.12633239  0.88947494  0.38303997     0.32800
H1432       H  0.12996437  0.73581935  0.38278410     0.43700
H1433       H  0.28545138  0.89370592  0.38717398     0.37200
H1434       H  0.21257310  0.85544347  0.36170691     0.33700
H1435       H  0.01287719  0.72979761  0.38411148     0.25500
H1436       H  0.16946698  0.72430255  0.35805894     0.31400
H1437       H  0.28837354  0.82707930  0.36353352     0.37300
H1438       H  0.07069908  0.84235983  0.39348722     0.31800
H1439       H  0.16826090  0.90304547  0.40000734     0.30600
H1440       H  0.27394837  0.99649068  0.39247201     0.32300
H1441       H  0.34887240  0.94426991  0.38058806     0.31300
H1442       H  0.08412315  0.72397414  0.39301030     0.35300
H1443       H  0.18097124  0.76665945  0.40070467     0.28000
H1444       H  0.14116218  0.92162016  0.35806828     0.32200
H1445       H  0.33690502  0.94456031  0.36286496     0.35100
H1446       H  0.19789672  0.95373894  0.39864992     0.27700
H1447       H  0.15861650  0.72736966  0.39545820     0.40600
H1448       H  0.08098054  0.69464958  0.37199152     0.30600
H1449       H  0.03177765  0.73214476  0.37664959     0.38300
H1450       H  0.32544330  0.97025205  0.37824761     0.30100
H1451       H  0.21226311  0.77089630  0.35781445     0.30200
H1452       H  0.18935584  0.92994833  0.35707635     0.30400
Zr1453     Zr  0.76880664  0.88333800  0.28223874     2.17500
O1454       O  0.81693189  0.87758393  0.27362257    -0.51900
O1455       O  0.82313628  0.95918006  0.28483639    -0.75100
O1456       O  0.76577487  0.91396025  0.27097974    -0.81900
O1457       O  0.80269848  0.82884246  0.29610525    -0.83700
O1458       O  0.69877583  0.90805575  0.26955009    -0.79300
O1459       O  0.82499566  0.86539629  0.28584380    -0.90900
O1460       O  0.79539648  0.98517361  0.29307532    -0.76900
O1461       O  0.72554786  0.91774031  0.28406441    -0.86400
O1462       O  0.76699471  0.89315132  0.29448894    -0.86100
O1463       O  0.69784250  0.83364171  0.27734474    -0.72800
O1464       O  0.73677743  0.81141706  0.28729576    -0.85000
Zr1465     Zr  0.61902181  0.80442063  0.29684953     2.26400
Zr1466     Zr  0.65392912  0.86739969  0.27955897     2.06300
Zr1467     Zr  0.73330273  0.82137114  0.29953562     2.10000
Zr1468     Zr  0.72319689  0.92670150  0.29627234     1.78800
O1469       O  0.72432177  0.74999044  0.30268418    -0.93800
O1470       O  0.71014412  0.98602466  0.29283127    -0.41600
O1471       O  0.69013551  0.85541911  0.30135946    -0.78200
O1472       O  0.65078671  0.87752645  0.29188681    -0.96900
O1473       O  0.62113988  0.79532900  0.28456662    -0.90200
O1474       O  0.66216882  0.77000411  0.29502790    -0.93000
C1475       C  0.82596877  0.98947959  0.28894712     1.00700
C1476       C  0.83012457  0.84561158  0.29108340     1.13700
C1477       C  0.73821557  0.92041595  0.26749767     1.04400
O1478       O  0.64460594  0.93041495  0.27709964    -0.95200
O1479       O  0.57920460  0.85096845  0.28213335    -0.90900
O1480       O  0.56160878  0.81793884  0.29269433    -0.84100
C1481       C  0.55291305  0.83368037  0.28731443     1.11100
O1482       O  0.70903772  0.74869508  0.27419725    -0.97200
Zr1483     Zr  0.66561085  0.76261159  0.28269398     1.88900
O1484       O  0.56733297  0.72560144  0.29482036    -0.73800
O1485       O  0.61111716  0.82464230  0.26954815    -0.53100
O1486       O  0.62673174  0.73887387  0.27162238    -0.97700
O1487       O  0.67503263  0.70071700  0.28604272    -0.55000
O1488       O  0.59290148  0.70490568  0.28554701    -0.74300
C1489       C  0.56362151  0.69748502  0.29013849     0.98000
O1490       O  0.56537922  0.79372022  0.30584513    -0.63100
O1491       O  0.78714952  0.85886937  0.30877528    -0.57900
O1492       O  0.63209484  0.80288837  0.30941073    -0.94600
O1493       O  0.69988310  0.81098652  0.31092339    -0.93100
O1494       O  0.76650154  0.95292688  0.30691289    -0.93400
O1495       O  0.68592602  0.94322953  0.30550385    -0.92200
C1496       C  0.66358125  0.80629317  0.31330348     1.16900
H1497       H  0.79633901  0.91117265  0.29636040     0.32800
H1498       H  0.63300106  0.89082510  0.29290583     0.43700
H1499       H  0.64969859  0.74201962  0.29739747     0.37200
H1500       H  0.70036337  0.83028936  0.27240739     0.33700
H1501       H  0.72972638  0.01118475  0.29587812     0.25500
H1502       H  0.60112383  0.84354961  0.26731990     0.31400
H1503       H  0.61001549  0.70622854  0.27183297     0.37300
H1504       H  0.75373081  0.92700554  0.31002670     0.31800
H1505       H  0.79556318  0.83717551  0.31033200     0.30600
H1506       H  0.73182414  0.75281769  0.30769161     0.32300
H1507       H  0.65676571  0.68821572  0.29025451     0.31300
H1508       H  0.66837908  0.91489224  0.30797162     0.35300
H1509       H  0.56474033  0.82168394  0.30608015     0.28000
H1510       H  0.83837695  0.90837430  0.27231644     0.32200
H1511       H  0.69017111  0.71771514  0.27265201     0.35100
H1512       H  0.81384533  0.88235720  0.30647882     0.27700
H1513       H  0.53629279  0.77161995  0.30394955     0.40600
H1514       H  0.65517829  0.94896903  0.28134202     0.30600
H1515       H  0.72358460  0.99479986  0.28816037     0.38300
H1516       H  0.70574752  0.71456303  0.28774923     0.30100
H1517       H  0.63295317  0.82475611  0.26626607     0.30200
H1518       H  0.79865245  0.86426651  0.26941882     0.30400
Zr1519     Zr  0.73240629  0.82598280  0.37050299     2.17500
O1520       O  0.77586905  0.81203388  0.36199698    -0.51900
O1521       O  0.78766262  0.90521177  0.37088042    -0.75100
O1522       O  0.71743219  0.83598174  0.35843102    -0.81900
O1523       O  0.78177336  0.79015826  0.38474304    -0.83700
O1524       O  0.64752443  0.82328439  0.35762982    -0.79300
O1525       O  0.79512897  0.81921392  0.37388956    -0.90900
O1526       O  0.76908616  0.93467523  0.37988109    -0.76900
O1527       O  0.69322895  0.86421824  0.37248236    -0.86400
O1528       O  0.74059261  0.84444149  0.38255839    -0.86100
O1529       O  0.65757457  0.77230679  0.36751866    -0.72800
O1530       O  0.70108175  0.75655923  0.37662864    -0.85000
Zr1531     Zr  0.59495969  0.76428472  0.38800902     2.26400
Zr1532     Zr  0.61880948  0.81143916  0.36949604     2.06300
Zr1533     Zr  0.70983963  0.77650194  0.38867574     2.10000
Zr1534     Zr  0.69998655  0.88091870  0.38464319     1.78800
O1535       O  0.72323323  0.71659442  0.39159636    -0.93800
O1536       O  0.68658115  0.93890827  0.38055929    -0.41600
O1537       O  0.67013934  0.81418034  0.39118335    -0.78200
O1538       O  0.62550976  0.83182832  0.38157223    -0.96900
O1539       O  0.58619791  0.74437593  0.37598415    -0.90200
O1540       O  0.63431466  0.72594142  0.38593763    -0.93000
C1541       C  0.79491248  0.93746553  0.37497378     1.00700
C1542       C  0.80616975  0.80591220  0.37931135     1.13700
C1543       C  0.68423554  0.83119881  0.35488970     1.04400
O1544       O  0.62394714  0.88095567  0.36620762    -0.95200
O1545       O  0.55009198  0.80353586  0.37353025    -0.90900
O1546       O  0.53428620  0.77680589  0.38455714    -0.84100
C1547       C  0.52580939  0.79170829  0.37898744     1.11100
O1548       O  0.65274452  0.67156331  0.36602456    -0.97200
Zr1549     Zr  0.62457204  0.70559600  0.37408748     1.88900
O1550       O  0.53414391  0.68966931  0.38722596    -0.73800
O1551       O  0.55873661  0.76731268  0.36146887    -0.53100
O1552       O  0.58165965  0.67946424  0.36339260    -0.97700
O1553       O  0.63166231  0.64555413  0.37909426    -0.55000
O1554       O  0.54931184  0.65657085  0.37828480    -0.74300
C1555       C  0.52392284  0.65707103  0.38309900     0.98000
O1556       O  0.57061438  0.79072321  0.39787863    -0.63100
O1557       O  0.75802340  0.82540096  0.39777669    -0.57900
O1558       O  0.60276979  0.73333718  0.39899894    -0.94600
O1559       O  0.67156900  0.74203488  0.39936900    -0.93100
O1560       O  0.74874559  0.91367319  0.39461974    -0.93400
O1561       O  0.66994028  0.90729493  0.39368396    -0.92200
C1562       C  0.63317448  0.72865784  0.40196338     1.16900
H1563       H  0.77114533  0.86299218  0.38380703     0.32800
H1564       H  0.60974003  0.84727279  0.38257298     0.43700
H1565       H  0.62268663  0.69941029  0.38868926     0.37200
H1566       H  0.65550844  0.76279026  0.36275069     0.33700
H1567       H  0.70973755  0.96621053  0.38281624     0.25500
H1568       H  0.56066312  0.78813561  0.35783540     0.31400
H1569       H  0.55756951  0.64926022  0.36444600     0.37300
H1570       H  0.77699818  0.91595239  0.39323094     0.31800
H1571       H  0.73851499  0.83092350  0.40083231     0.30600
H1572       H  0.74177807  0.72688571  0.39583214     0.32300
H1573       H  0.60481454  0.62844725  0.38192799     0.31300
H1574       H  0.65514759  0.88228648  0.39694843     0.35300
H1575       H  0.59588627  0.80351509  0.40113642     0.28000
H1576       H  0.79169245  0.83931724  0.35921066     0.32200
H1577       H  0.62879808  0.64056764  0.36545423     0.35100
H1578       H  0.76583579  0.80668623  0.40058527     0.27700
H1579       H  0.56954313  0.81671203  0.39612253     0.40600
H1580       H  0.61106708  0.88876008  0.37017528     0.30600
H1581       H  0.69493274  0.94254699  0.37558524     0.38300
H1582       H  0.65584480  0.65992131  0.38252673     0.30100
H1583       H  0.56748588  0.74770395  0.35909395     0.30200
H1584       H  0.75442996  0.78938864  0.35875887     0.30400
Zr1585     Zr  0.93709950  0.74748662  0.21773787     2.17500
O1586       O  0.92281451  0.78228398  0.22768541    -0.51900
O1587       O  0.00920609  0.81098686  0.21529255    -0.75100
O1588       O  0.97339732  0.74572734  0.22820158    -0.81900
O1589       O  0.86930190  0.77801846  0.20619964    -0.83700
O1590       O  0.97147807  0.68015401  0.22905591    -0.79300
O1591       O  0.91259342  0.79971401  0.21582911    -0.90900
O1592       O  0.03830833  0.79112922  0.20639050    -0.76900
O1593       O  0.97886971  0.71318862  0.21479040    -0.86400
O1594       O  0.94469557  0.75305191  0.20546475    -0.86100
O1595       O  0.89462398  0.67290071  0.22179965    -0.72800
O1596       O  0.86338177  0.71030536  0.21333097    -0.85000
Zr1597     Zr  0.86882275  0.60446183  0.20140523     2.26400
Zr1598     Zr  0.93601408  0.63826538  0.21842679     2.06300
Zr1599     Zr  0.87126797  0.71508794  0.20101731     2.10000
Zr1600     Zr  0.98509592  0.71714671  0.20251730     1.78800
O1601       O  0.79646807  0.69895627  0.19864184    -0.93800
O1602       O  0.05112405  0.71365658  0.20522287    -0.41600
O1603       O  0.91224453  0.67985537  0.19791952    -0.78200
O1604       O  0.94310323  0.64107232  0.20599572    -0.96900
O1605       O  0.86260440  0.59998810  0.21378872    -0.90200
O1606       O  0.82775750  0.63965106  0.20454109    -0.93000
C1607       C  0.04022077  0.81892993  0.21096418     1.00700
C1608       C  0.88732763  0.80374363  0.21146233     1.13700
C1609       C  0.98164543  0.71872135  0.23138721     1.04400
O1610       O  0.00773856  0.64346013  0.21752925    -0.95200
O1611       O  0.91969198  0.56406834  0.21525037    -0.90900
O1612       O  0.88549980  0.54673796  0.20474088    -0.84100
C1613       C  0.90198696  0.53779511  0.21003815     1.11100
O1614       O  0.80307438  0.66375965  0.22714777    -0.97200
Zr1615     Zr  0.82204392  0.63513719  0.21692546     1.88900
O1616       O  0.79065797  0.54840592  0.20275593    -0.73800
O1617       O  0.91459674  0.59446303  0.22900381    -0.53100
O1618       O  0.80266077  0.58411759  0.22660708    -0.97700
O1619       O  0.75733691  0.64253349  0.21497182    -0.55000
O1620       O  0.76616562  0.56420699  0.21267121    -0.74300
C1621       C  0.76076439  0.53972702  0.20736735     0.98000
O1622       O  0.86124084  0.55584809  0.19170331    -0.63100
O1623       O  0.90207528  0.77490206  0.19257826    -0.57900
O1624       O  0.86823190  0.62626923  0.18918360    -0.94600
O1625       O  0.85896460  0.68612171  0.18925788    -0.93100
O1626       O  0.00246654  0.76127666  0.19201882    -0.93400
O1627       O  0.00700201  0.68695623  0.19287913    -0.92200
C1628       C  0.86271738  0.65580927  0.18607057     1.16900
H1629       H  0.95961927  0.78341707  0.20396530     0.32800
H1630       H  0.95836708  0.62588565  0.20449975     0.43700
H1631       H  0.79942708  0.62612997  0.20228297     0.37200
H1632       H  0.89210525  0.67286163  0.22679988     0.33700
H1633       H  0.07432376  0.73630691  0.20222561     0.25500
H1634       H  0.88517946  0.56887817  0.22796847     0.31400
H1635       H  0.82745711  0.59897978  0.22992559     0.37300
H1636       H  0.97345038  0.75307294  0.18997687     0.31800
H1637       H  0.87705950  0.77881591  0.19120629     0.30600
H1638       H  0.79979572  0.72719870  0.19698336     0.32300
H1639       H  0.74522657  0.62801216  0.21043582     0.31300
H1640       H  0.98083329  0.65769798  0.19194936     0.35300
H1641       H  0.88973184  0.55646954  0.19139682     0.28000
H1642       H  0.95201418  0.80520194  0.22943091     0.32200
H1643       H  0.77267081  0.64092769  0.22838464     0.35100
H1644       H  0.92183618  0.80195295  0.19525209     0.27700
H1645       H  0.83977364  0.52561888  0.19325639     0.40600
H1646       H  0.02437192  0.66077321  0.22165646     0.30600
H1647       H  0.05940907  0.72591586  0.20998944     0.38300
H1648       H  0.76928725  0.67435542  0.21407240     0.30100
H1649       H  0.93440675  0.58197137  0.22924495     0.30200
H1650       H  0.91060229  0.75961006  0.23137243     0.30400
Zr1651     Zr  0.87901502  0.71662848  0.13013637     2.17500
O1652       O  0.86816016  0.75884605  0.13930027    -0.51900
O1653       O  0.95696345  0.77540961  0.12898614    -0.75100
O1654       O  0.89516279  0.70065035  0.14195146    -0.81900
O1655       O  0.82537000  0.75723516  0.11687035    -0.83700
O1656       O  0.89853462  0.63745625  0.14154636    -0.79300
O1657       O  0.86272757  0.77477901  0.12711968    -0.90900
O1658       O  0.98192584  0.76289742  0.11883518    -0.76900
O1659       O  0.92170160  0.68387840  0.12677816    -0.86400
O1660       O  0.88738615  0.72457911  0.11780759    -0.86100
O1661       O  0.83410689  0.63988994  0.13330038    -0.72800
O1662       O  0.80562811  0.67921238  0.12514113    -0.85000
Zr1663     Zr  0.81634731  0.57931890  0.11256019     2.26400
Zr1664     Zr  0.87790373  0.60771085  0.12986363     2.06300
Zr1665     Zr  0.81509483  0.68707581  0.11276530     2.10000
Zr1666     Zr  0.92920237  0.69131292  0.11444608     1.78800
O1667       O  0.74530514  0.68618504  0.11227038    -0.93800
O1668       O  0.99582882  0.68843855  0.11693944    -0.41600
O1669       O  0.85803180  0.65488984  0.10909226    -0.78200
O1670       O  0.88869642  0.61552424  0.11755717    -0.96900
O1671       O  0.80609863  0.56989073  0.12479447    -0.90200
O1672       O  0.77288928  0.61119359  0.11584538    -0.93000
C1673       C  0.98684539  0.78614363  0.12427057     1.00700
C1674       C  0.84383317  0.78306755  0.12208918     1.13700
C1675       C  0.90002812  0.67012891  0.14484707     1.04400
O1676       O  0.95271960  0.62104607  0.13094153    -0.95200
O1677       O  0.87187712  0.53999823  0.12533004    -0.90900
O1678       O  0.83327120  0.52173418  0.11519117    -0.84100
C1679       C  0.85426448  0.51473480  0.12001856     1.11100
O1680       O  0.73151855  0.62846090  0.13682451    -0.97200
Zr1681     Zr  0.76304228  0.60202617  0.12800674     1.88900
O1682       O  0.74523323  0.51445713  0.11428705    -0.73800
O1683       O  0.84956643  0.54838349  0.13838235    -0.53100
O1684       O  0.74832298  0.55985765  0.13870074    -0.97700
O1685       O  0.69354324  0.59630946  0.12448186    -0.55000
O1686       O  0.71779794  0.52531290  0.12434475    -0.74300
C1687       C  0.71651572  0.50135648  0.11915800     0.98000
O1688       O  0.84019990  0.55588437  0.10226265    -0.63100
O1689       O  0.84714526  0.73689024  0.10295516    -0.57900
O1690       O  0.77858085  0.58202266  0.10213652    -0.94600
O1691       O  0.77767938  0.64659191  0.10213571    -0.93100
O1692       O  0.94588418  0.73794803  0.10425261    -0.93400
O1693       O  0.95494005  0.66413681  0.10488801    -0.92200
C1694       C  0.76830114  0.60913503  0.09940666     1.16900
H1695       H  0.90269050  0.75533746  0.11651952     0.32800
H1696       H  0.90513953  0.60176447  0.11596823     0.43700
H1697       H  0.74469660  0.59682337  0.11350623     0.37200
H1698       H  0.82763877  0.63636912  0.13820684     0.33700
H1699       H  0.01949452  0.71357395  0.11436320     0.25500
H1700       H  0.87553008  0.55312005  0.14110359     0.31400
H1701       H  0.71640543  0.53811388  0.13855739     0.37300
H1702       H  0.97827970  0.75732760  0.10434172     0.31800
H1703       H  0.82896537  0.75108884  0.10246332     0.30600
H1704       H  0.74814967  0.70476783  0.10821973     0.32300
H1705       H  0.68118355  0.57315745  0.12083187     0.31300
H1706       H  0.93031041  0.65161451  0.10151109     0.35300
H1707       H  0.84749839  0.57927527  0.09877899     0.28000
H1708       H  0.89647748  0.77461274  0.14184518     0.32200
H1709       H  0.70272911  0.60267618  0.13806968     0.35100
H1710       H  0.87593507  0.76076967  0.10466488     0.27700
H1711       H  0.86918883  0.55955075  0.10353561     0.40600
H1712       H  0.95150011  0.60248248  0.13489684     0.30600
H1713       H  0.00237770  0.69712833  0.12189311     0.38300
H1714       H  0.70210048  0.62413075  0.12199481     0.30100
H1715       H  0.83188487  0.55508950  0.14166486     0.30200
H1716       H  0.84713481  0.73677823  0.14261630     0.30400
Zr1717     Zr  0.30076454  0.17597747  0.21930101     2.17500
O1718       O  0.26872883  0.13357015  0.22986555    -0.51900
O1719       O  0.23789136  0.18562080  0.21647842    -0.75100
O1720       O  0.30917813  0.22430987  0.22911521    -0.81900
O1721       O  0.26068711  0.07529157  0.20795905    -0.83700
O1722       O  0.37742068  0.28510971  0.22900835    -0.79300
O1723       O  0.24259072  0.09977652  0.21768968    -0.90900
O1724       O  0.25774853  0.23086965  0.20713168    -0.76900
O1725       O  0.33985730  0.25099925  0.21573434    -0.86400
O1726       O  0.29318117  0.17431389  0.20699968    -0.86100
O1727       O  0.37596415  0.20349399  0.22286701    -0.72800
O1728       O  0.33301527  0.13391265  0.21491054    -0.85000
Zr1729     Zr  0.43980978  0.23731591  0.20207223     2.26400
Zr1730     Zr  0.41509435  0.27838006  0.21892405     2.06300
Zr1731     Zr  0.32620849  0.13398842  0.20256077     2.10000
Zr1732     Zr  0.33161862  0.24936999  0.20350007     1.78800
O1733       O  0.33994591  0.07303860  0.20062831    -0.93800
O1734       O  0.33973842  0.32130362  0.20612155    -0.41600
O1735       O  0.36431320  0.20912043  0.19889714    -0.78200
O1736       O  0.40797680  0.27968065  0.20655475    -0.96900
O1737       O  0.44802420  0.23806893  0.21435729    -0.90200
O1738       O  0.40159578  0.16188064  0.20564537    -0.93000
C1739       C  0.22970389  0.20655146  0.21176800     1.00700
C1740       C  0.23569238  0.06964897  0.21319652     1.13700
C1741       C  0.33899146  0.26152166  0.23165103     1.04400
O1742       O  0.42592356  0.35272181  0.21927917    -0.95200
O1743       O  0.48714613  0.33423995  0.21505441    -0.90900
O1744       O  0.50223626  0.31049051  0.20497631    -0.84100
C1745       C  0.51234769  0.33907796  0.20989442     1.11100
O1746       O  0.38538931  0.12054425  0.22868452    -0.97200
Zr1747     Zr  0.40884351  0.16330705  0.21798472     1.88900
O1748       O  0.49290267  0.21186614  0.20323810    -0.73800
O1749       O  0.46405578  0.28966088  0.22866637    -0.53100
O1750       O  0.46184064  0.19468832  0.22747109    -0.97700
O1751       O  0.39254617  0.08744985  0.21624625    -0.55000
O1752       O  0.47684905  0.17222014  0.21318315    -0.74300
C1753       C  0.50079706  0.18993898  0.20778941     0.98000
O1754       O  0.48222442  0.27900951  0.19197283    -0.63100
O1755       O  0.26525294  0.09994670  0.19429208    -0.57900
O1756       O  0.41819693  0.20631647  0.19033028    -0.94600
O1757       O  0.34953867  0.14612507  0.19055977    -0.93100
O1758       O  0.28629137  0.22078247  0.19310426    -0.93400
O1759       O  0.36083991  0.29812810  0.19352524    -0.92200
C1760       C  0.38422175  0.17440324  0.18733457     1.16900
H1761       H  0.26264159  0.15951669  0.20557792     0.32800
H1762       H  0.42429643  0.30968249  0.20489162     0.43700
H1763       H  0.41296359  0.14495389  0.20338527     0.37200
H1764       H  0.37728297  0.20274591  0.22787262     0.33700
H1765       H  0.31361372  0.32036751  0.20398918     0.25500
H1766       H  0.47128462  0.31872720  0.23063855     0.31400
H1767       H  0.48568248  0.22315630  0.22567795     0.37300
H1768       H  0.27816117  0.18932422  0.19287421     0.31800
H1769       H  0.25595703  0.06815886  0.19423272     0.30600
H1770       H  0.31095821  0.04771998  0.19931107     0.32300
H1771       H  0.40945771  0.08822609  0.21206963     0.31300
H1772       H  0.38565986  0.29453313  0.19188852     0.35300
H1773       H  0.48239112  0.30738976  0.19213559     0.28000
H1774       H  0.24552049  0.14031579  0.23125895     0.32200
H1775       H  0.40643679  0.10990107  0.22943943     0.35100
H1776       H  0.24049074  0.10137873  0.19650797     0.27700
H1777       H  0.51304909  0.28673633  0.19289041     0.40600
H1778       H  0.44359602  0.36628404  0.22352991     0.30600
H1779       H  0.33465338  0.32101129  0.21119172     0.38300
H1780       H  0.36139305  0.07112127  0.21473189     0.30100
H1781       H  0.44525004  0.26808915  0.23222633     0.30200
H1782       H  0.29178080  0.14760789  0.23348517     0.30400
Zr1783     Zr  0.30399680  0.08529911  0.13076586     2.17500
O1784       O  0.26163385  0.02527646  0.13886790    -0.51900
O1785       O  0.24925991  0.10898949  0.13018065    -0.75100
O1786       O  0.31412082  0.11083542  0.14290361    -0.81900
O1787       O  0.25853964  0.00177631  0.11589645    -0.83700
O1788       O  0.38220089  0.17152771  0.14356548    -0.79300
O1789       O  0.24218271  0.01661471  0.12667485    -0.90900
O1790       O  0.27034210  0.15786688  0.12131911    -0.76900
O1791       O  0.34360416  0.16293312  0.12884495    -0.86400
O1792       O  0.30015198  0.09552536  0.11856828    -0.86100
O1793       O  0.37780422  0.10857745  0.13453011    -0.72800
O1794       O  0.33615243  0.04679960  0.12497703    -0.85000
Zr1795     Zr  0.44785892  0.16094111  0.11470445     2.26400
Zr1796     Zr  0.41738107  0.18646341  0.13237730     2.06300
Zr1797     Zr  0.33348305  0.05895427  0.11278211     2.10000
Zr1798     Zr  0.34050992  0.17264159  0.11666923     1.78800
O1799       O  0.32377792  0.98644859  0.11017200    -0.93800
O1800       O  0.35278663  0.24462885  0.12039262    -0.41600
O1801       O  0.37429445  0.13677555  0.11072021    -0.78200
O1802       O  0.41481725  0.19911830  0.12023528    -0.96900
O1803       O  0.45080927  0.14970849  0.12681583    -0.90200
O1804       O  0.40713899  0.08311030  0.11652992    -0.93000
C1805       C  0.24337861  0.13468253  0.12612172     1.00700
C1806       C  0.23244678  0.99286116  0.12114152     1.13700
C1807       C  0.34607744  0.14227565  0.14632019     1.04400
O1808       O  0.41054206  0.25055432  0.13532183    -0.95200
O1809       O  0.48933805  0.24631540  0.12912226    -0.90900
O1810       O  0.50784804  0.23270295  0.11842587    -0.84100
C1811       C  0.51540959  0.25684097  0.12389030     1.11100
O1812       O  0.37479776  0.01178703  0.13683657    -0.97200
Zr1813     Zr  0.41044933  0.07234834  0.12860122     1.88900
O1814       O  0.50906011  0.14832557  0.11702360    -0.73800
O1815       O  0.47259660  0.20455517  0.14140782    -0.53100
O1816       O  0.44905444  0.08690209  0.13967687    -0.97700
O1817       O  0.40762016  0.00608855  0.12390296    -0.55000
O1818       O  0.48680009  0.09864770  0.12580064    -0.74300
C1819       C  0.51598246  0.12548454  0.12153854     0.98000
O1820       O  0.47798670  0.21339279  0.10512960    -0.63100
O1821       O  0.29161795  0.05942289  0.10272680    -0.57900
O1822       O  0.44534325  0.12526365  0.10367352    -0.94600
O1823       O  0.37708236  0.06498023  0.10246165    -0.93100
O1824       O  0.29411971  0.15125941  0.10632918    -0.93400
O1825       O  0.36956419  0.22886136  0.10767466    -0.92200
C1826       C  0.41636302  0.09140595  0.10026190     1.16900
H1827       H  0.27012145  0.08366460  0.11704243     0.32800
H1828       H  0.43142933  0.23032206  0.11923375     0.43700
H1829       H  0.41984760  0.06834981  0.11398733     0.37200
H1830       H  0.37857871  0.10202090  0.13937750     0.33700
H1831       H  0.32829141  0.24698575  0.11829384     0.25500
H1832       H  0.47175535  0.22779577  0.14425541     0.31400
H1833       H  0.47177761  0.11855453  0.13951441     0.37300
H1834       H  0.26609150  0.14896268  0.10785918     0.31800
H1835       H  0.31278524  0.08512838  0.09995204     0.30600
H1836       H  0.30716033  0.97753886  0.10573984     0.32300
H1837       H  0.43290244  0.01675248  0.12067695     0.31300
H1838       H  0.39609542  0.22875381  0.10593729     0.35300
H1839       H  0.45526926  0.20107899  0.10143505     0.28000
H1840       H  0.24438694  0.03487479  0.14172611     0.32200
H1841       H  0.39581423  0.00109582  0.13757589     0.35100
H1842       H  0.28653679  0.03343823  0.09992847     0.27700
H1843       H  0.47710478  0.23982400  0.10676843     0.40600
H1844       H  0.43253809  0.27465998  0.13237937     0.30600
H1845       H  0.34621913  0.24145875  0.12543350     0.38300
H1846       H  0.38134805  0.99261489  0.12085249     0.30100
H1847       H  0.46031916  0.17838366  0.14446290     0.30200
H1848       H  0.28357464  0.02519950  0.14209094     0.30400
Zr1849     Zr  0.86918919  0.10076806  0.21861183     2.17500
O1850       O  0.91747620  0.11187598  0.22845005    -0.51900
O1851       O  0.85273813  0.02600768  0.21584986    -0.75100
O1852       O  0.82687287  0.06406076  0.22908145    -0.81900
O1853       O  0.96797492  0.16010584  0.20665231    -0.83700
O1854       O  0.76616933  0.07150842  0.22916063    -0.79300
O1855       O  0.94540210  0.11982639  0.21657326    -0.90900
O1856       O  0.80270825  0.99937605  0.20707881    -0.76900
O1857       O  0.79309399  0.06605959  0.21566078    -0.86400
O1858       O  0.86560814  0.09164772  0.20627958    -0.86100
O1859       O  0.84550542  0.15104500  0.22254472    -0.72800
O1860       O  0.91086666  0.17340389  0.21381067    -0.85000
Zr1861     Zr  0.80559441  0.17873348  0.20193817     2.26400
Zr1862     Zr  0.76966428  0.11639660  0.21926331     2.06300
Zr1863     Zr  0.90659046  0.16410014  0.20149658     2.10000
Zr1864     Zr  0.78918432  0.05725461  0.20340989     1.78800
O1865       O  0.96735872  0.23720690  0.19869315    -0.93800
O1866       O  0.71624828  0.99624155  0.20622010    -0.41600
O1867       O  0.83044466  0.12899385  0.19867926    -0.78200
O1868       O  0.76250855  0.10567809  0.20688411    -0.96900
O1869       O  0.80977013  0.18837567  0.21425615    -0.90200
O1870       O  0.88213055  0.21443499  0.20484173    -0.93000
C1871       C  0.82778398  0.99560436  0.21151528     1.00700
C1872       C  0.97492507  0.14252507  0.21200284     1.13700
C1873       C  0.79013138  0.05679655  0.23174283     1.04400
O1874       O  0.69510472  0.05598406  0.22124606    -0.95200
O1875       O  0.71407024  0.13341495  0.21559701    -0.90900
O1876       O  0.73160030  0.16456311  0.20489533    -0.84100
C1877       C  0.70606311  0.14972968  0.21021435     1.11100
O1878       O  0.93244701  0.24116242  0.22747886    -0.97200
Zr1879     Zr  0.88555801  0.22266671  0.21722449     1.88900
O1880       O  0.83405545  0.25852285  0.20335211    -0.73800
O1881       O  0.76630939  0.15856498  0.22912825    -0.53100
O1882       O  0.85808681  0.24863105  0.22673017    -0.97700
O1883       O  0.96178876  0.27814199  0.21479824    -0.55000
O1884       O  0.87896003  0.28361228  0.21276634    -0.74300
C1885       C  0.85881840  0.28929579  0.20767754     0.98000
O1886       O  0.77118017  0.19428672  0.19217888    -0.63100
O1887       O  0.93511703  0.13274170  0.19300173    -0.57900
O1888       O  0.82373570  0.17140258  0.18973024    -0.94600
O1889       O  0.88637695  0.16740425  0.18953173    -0.93100
O1890       O  0.81105088  0.03380442  0.19292687    -0.93400
O1891       O  0.73903534  0.04046431  0.19364287    -0.92200
C1892       C  0.85413621  0.16792504  0.18646336     1.16900
H1893       H  0.87843756  0.07421752  0.20473592     0.32800
H1894       H  0.73197912  0.09200433  0.20549415     0.43700
H1895       H  0.89881394  0.24223138  0.20247374     0.37200
H1896       H  0.84824727  0.15423194  0.22753882     0.33700
H1897       H  0.71119380  0.97268131  0.20284249     0.25500
H1898       H  0.76189772  0.18186692  0.22703953     0.31400
H1899       H  0.87402230  0.28120154  0.22633424     0.37300
H1900       H  0.83703712  0.06093555  0.19118724     0.31800
H1901       H  0.96689456  0.15460463  0.19261257     0.30600
H1902       H  0.97410309  0.23500202  0.19375505     0.32300
H1903       H  0.96038119  0.29473209  0.21074962     0.31300
H1904       H  0.74055029  0.06884524  0.19257631     0.35300
H1905       H  0.74222950  0.16724024  0.19150393     0.28000
H1906       H  0.90814830  0.08199836  0.23024396     0.32200
H1907       H  0.94480166  0.27324749  0.22823365     0.35100
H1908       H  0.93399998  0.10702195  0.19532084     0.27700
H1909       H  0.76418410  0.21678094  0.19391088     0.40600
H1910       H  0.68863260  0.03628329  0.21716625     0.30600
H1911       H  0.71992284  0.98505503  0.21073976     0.38300
H1912       H  0.97532120  0.26122013  0.21295141     0.30100
H1913       H  0.73785245  0.13845702  0.23139491     0.30200
H1914       H  0.90886314  0.12618436  0.23209803     0.30400
Zr1915     Zr  0.93367560  0.13840983  0.13075838     2.17500
O1916       O  0.98470080  0.14223937  0.13971375    -0.51900
O1917       O  0.90812304  0.05952291  0.12959487    -0.75100
O1918       O  0.90279868  0.12637138  0.14267166    -0.81900
O1919       O  0.02564349  0.18344044  0.11698901    -0.83700
O1920       O  0.84139900  0.13272290  0.14274408    -0.79300
O1921       O  0.00708715  0.15113485  0.12762498    -0.90900
O1922       O  0.86236303  0.03372871  0.12028820    -0.76900
O1923       O  0.85705480  0.10345724  0.12804545    -0.86400
O1924       O  0.92776649  0.12602594  0.11846508    -0.86100
O1925       O  0.91121594  0.19056660  0.13417692    -0.72800
O1926       O  0.97615338  0.20954513  0.12532125    -0.85000
Zr1927     Zr  0.86873416  0.21340853  0.11395350     2.26400
Zr1928     Zr  0.83419240  0.15535630  0.13123496     2.06300
Zr1929     Zr  0.96780134  0.19668422  0.11301698     2.10000
Zr1930     Zr  0.85169311  0.09191658  0.11577928     1.78800
O1931       O  0.04038338  0.25976806  0.11072995    -0.93800
O1932       O  0.77868955  0.03164469  0.11875722    -0.41600
O1933       O  0.89140436  0.16219803  0.11013856    -0.78200
O1934       O  0.82682794  0.14157774  0.11901731    -0.96900
O1935       O  0.87579129  0.22648404  0.12612647    -0.90200
O1936       O  0.94536025  0.24789324  0.11653873    -0.93000
C1937       C  0.88338939  0.02867277  0.12530142     1.00700
C1938       C  0.03342780  0.16703341  0.12239571     1.13700
C1939       C  0.87044594  0.12690098  0.14582075     1.04400
O1940       O  0.76599503  0.08645789  0.13326329    -0.95200
O1941       O  0.77427598  0.16485694  0.12682709    -0.90900
O1942       O  0.79540386  0.20083242  0.11650712    -0.84100
C1943       C  0.76719256  0.18171949  0.12139266     1.11100
O1944       O  0.01059914  0.28067627  0.13726053    -0.97200
Zr1945     Zr  0.95233979  0.26021381  0.12868597     1.88900
O1946       O  0.88261889  0.28732022  0.11680875    -0.73800
O1947       O  0.81825094  0.19795244  0.13963230    -0.53100
O1948       O  0.93437817  0.28359904  0.13956926    -0.97700
O1949       O  0.02198496  0.32320240  0.12497239    -0.55000
O1950       O  0.93367945  0.31523792  0.12542797    -0.74300
C1951       C  0.90710213  0.31786819  0.12116546     0.98000
O1952       O  0.82363146  0.19823869  0.10350333    -0.63100
O1953       O  0.97182677  0.15177376  0.10363374    -0.57900
O1954       O  0.90993213  0.24913504  0.10356659    -0.94600
O1955       O  0.96608383  0.23471383  0.10250838    -0.93100
O1956       O  0.87320050  0.06559616  0.10558321    -0.93400
O1957       O  0.79601808  0.07071801  0.10674484    -0.92200
C1958       C  0.94310744  0.25162082  0.10032202     1.16900
H1959       H  0.93963942  0.10747826  0.11707600     0.32800
H1960       H  0.79638795  0.12769045  0.11759892     0.43700
H1961       H  0.96199959  0.27575500  0.11416465     0.37200
H1962       H  0.91608478  0.19781984  0.13905796     0.33700
H1963       H  0.77652416  0.00530032  0.11642981     0.25500
H1964       H  0.79074511  0.17600157  0.14195149     0.31400
H1965       H  0.90744243  0.28497209  0.13854436     0.37300
H1966       H  0.85665691  0.03302409  0.10598151     0.31800
H1967       H  0.94732211  0.14625094  0.10047306     0.30600
H1968       H  0.05211628  0.25023731  0.10681507     0.32300
H1969       H  0.01427124  0.33841029  0.12139194     0.31300
H1970       H  0.80981419  0.09435428  0.10322845     0.35300
H1971       H  0.83601973  0.18622375  0.10006600     0.28000
H1972       H  0.96862754  0.11469569  0.14243051     0.32200
H1973       H  0.02070495  0.31180277  0.13851339     0.35100
H1974       H  0.99876195  0.17213546  0.10102709     0.27700
H1975       H  0.79461755  0.17244142  0.10463741     0.40600
H1976       H  0.75362842  0.09190558  0.13753978     0.30600
H1977       H  0.78037607  0.02649392  0.12377517     0.38300
H1978       H  0.03701889  0.31003576  0.12237101     0.30100
H1979       H  0.84126238  0.20727698  0.14325833     0.30200
H1980       H  0.98851290  0.16615107  0.14292254     0.30400
Zr1981     Zr  0.49501978  0.53157059  0.03527562     2.17500
O1982       O  0.49728230  0.58189640  0.02633979    -0.51900
O1983       O  0.41656467  0.50547756  0.03623916    -0.75100
O1984       O  0.48368941  0.50115904  0.02344201    -0.81900
O1985       O  0.54620217  0.62821348  0.04777785    -0.83700
O1986       O  0.48835907  0.43870804  0.02347304    -0.79300
O1987       O  0.50932988  0.60588850  0.03751692    -0.90900
O1988       O  0.39058965  0.46337110  0.04589954    -0.76900
O1989       O  0.45912970  0.45549417  0.03831084    -0.86400
O1990       O  0.48369772  0.52917083  0.04756811    -0.86100
O1991       O  0.54664091  0.50872158  0.03196048    -0.72800
O1992       O  0.56643372  0.57508301  0.04057422    -0.85000
Zr1993     Zr  0.57145018  0.46978819  0.05239545     2.26400
Zr1994     Zr  0.51061924  0.43229987  0.03513108     2.06300
Zr1995     Zr  0.55477825  0.56951992  0.05288119     2.10000
Zr1996     Zr  0.44945564  0.45358952  0.05062383     1.78800
O1997       O  0.61322667  0.64342056  0.05601843    -0.93800
O1998       O  0.39016079  0.37865354  0.04825627    -0.41600
O1999       O  0.52074265  0.49358321  0.05603125    -0.78200
O2000       O  0.49871523  0.42762344  0.04745135    -0.96900
O2001       O  0.58226985  0.47422469  0.04015822    -0.90200
O2002       O  0.60546918  0.54605077  0.04951933    -0.93000
C2003       C  0.38577373  0.48276320  0.04060401     1.00700
C2004       C  0.52895249  0.63467285  0.04233729     1.13700
C2005       C  0.48382129  0.46849025  0.02034915     1.04400
O2006       O  0.44234128  0.36387347  0.03275098    -0.95200
O2007       O  0.52038002  0.37309762  0.03962420    -0.90900
O2008       O  0.55825061  0.39557769  0.04981886    -0.84100
C2009       C  0.53837415  0.36677518  0.04497340     1.11100
O2010       O  0.63602183  0.60550296  0.02826552    -0.97200
Zr2011     Zr  0.61647491  0.55059510  0.03736715     1.88900
O2012       O  0.64497792  0.48261870  0.04945284    -0.73800
O2013       O  0.55274488  0.41775477  0.02648733    -0.53100
O2014       O  0.64258685  0.53429836  0.02662528    -0.97700
O2015       O  0.67722198  0.62124488  0.04136869    -0.55000
O2016       O  0.67100038  0.53154100  0.04056330    -0.74300
C2017       C  0.67450188  0.50592859  0.04491024     0.98000
O2018       O  0.55747977  0.42735852  0.06307810    -0.63100
O2019       O  0.50641611  0.57090230  0.06186112    -0.57900
O2020       O  0.60958490  0.51399221  0.06266759    -0.94600
O2021       O  0.59594296  0.57103995  0.06324793    -0.93100
O2022       O  0.42440283  0.47939665  0.06047866    -0.93400
O2023       O  0.43038244  0.40637616  0.06079970    -0.92200
C2024       C  0.61314797  0.54874128  0.06563968     1.16900
H2025       H  0.46560398  0.54178513  0.04882497     0.32800
H2026       H  0.48510638  0.39737271  0.04897368     0.43700
H2027       H  0.63355578  0.56310702  0.05183736     0.37200
H2028       H  0.55393917  0.51289472  0.02708570     0.33700
H2029       H  0.38047428  0.37965230  0.04346205     0.25500
H2030       H  0.53267959  0.38714494  0.02488320     0.31400
H2031       H  0.63195192  0.50225505  0.02683075     0.37300
H2032       H  0.39320863  0.46983421  0.05947794     0.31800
H2033       H  0.50935188  0.55437594  0.06578759     0.30600
H2034       H  0.59881372  0.65597791  0.05893063     0.32300
H2035       H  0.69388399  0.61394943  0.04474051     0.31300
H2036       H  0.45718460  0.40469325  0.06179629     0.35300
H2037       H  0.54450996  0.43979959  0.06632837     0.28000
H2038       H  0.46921968  0.56565387  0.02374001     0.32200
H2039       H  0.66854724  0.62101088  0.02793767     0.35100
H2040       H  0.52119913  0.60193799  0.06349376     0.27700
H2041       H  0.53260050  0.39755619  0.06199262     0.40600
H2042       H  0.44888548  0.35116901  0.02861321     0.30600
H2043       H  0.40472143  0.36073499  0.04785235     0.38300
H2044       H  0.66312870  0.63439787  0.04421892     0.30100
H2045       H  0.57593272  0.41598725  0.02915083     0.30200
H2046       H  0.52044946  0.58543167  0.02302282     0.30400
Zr2047     Zr  0.46877341  0.52017574  0.94814035     2.17500
O2048       O  0.48306693  0.56447658  0.93769909    -0.51900
O2049       O  0.39492914  0.50580578  0.95075144    -0.75100
O2050       O  0.42981654  0.47286721  0.93800035    -0.81900
O2051       O  0.52234544  0.61744302  0.96032101    -0.83700
O2052       O  0.43811428  0.41244793  0.93828315    -0.79300
O2053       O  0.48443679  0.59620673  0.95012614    -0.90900
O2054       O  0.37040582  0.46064484  0.96012702    -0.76900
O2055       O  0.43350360  0.44507697  0.95177937    -0.86400
O2056       O  0.46302710  0.52128256  0.96052805    -0.86100
O2057       O  0.51597244  0.49229837  0.94451468    -0.72800
O2058       O  0.54253639  0.56260844  0.95263493    -0.85000
Zr2059     Zr  0.54750537  0.46087779  0.96535456     2.26400
Zr2060     Zr  0.48115589  0.41760169  0.94850648     2.06300
Zr2061     Zr  0.53646701  0.56232409  0.96500760     2.10000
Zr2062     Zr  0.42717702  0.44601967  0.96403548     1.78800
O2063       O  0.61097851  0.62529431  0.96564575    -0.93800
O2064       O  0.36603835  0.37239148  0.96148271    -0.41600
O2065       O  0.49959141  0.48759524  0.96861550    -0.78200
O2066       O  0.47341299  0.41639775  0.96091365    -0.96900
O2067       O  0.55426629  0.45910669  0.95304117    -0.90200
O2068       O  0.58456861  0.53574195  0.96168987    -0.93000
C2069       C  0.36565639  0.48330384  0.95534735     1.00700
C2070       C  0.50405579  0.62421112  0.95509486     1.13700
C2071       C  0.42335246  0.43575332  0.93547467     1.04400
O2072       O  0.41675612  0.34400395  0.94772485    -0.95200
O2073       O  0.49934645  0.36328506  0.95273170    -0.90900
O2074       O  0.52956877  0.38562084  0.96345998    -0.84100
C2075       C  0.51523379  0.35791393  0.95842258     1.11100
O2076       O  0.60679394  0.58426578  0.93957828    -0.97200
Zr2077     Zr  0.58876735  0.53353522  0.94928459     1.88900
O2078       O  0.62493490  0.48386454  0.96347863    -0.73800
O2079       O  0.51838317  0.40702868  0.93861233    -0.53100
O2080       O  0.60295168  0.50319185  0.93879248    -0.97700
O2081       O  0.65376843  0.60579063  0.95117860    -0.55000
O2082       O  0.64523997  0.51791664  0.95303712    -0.74300
C2083       C  0.65242687  0.50128069  0.95845345     0.98000
O2084       O  0.56769019  0.43206505  0.97536487    -0.63100
O2085       O  0.51447585  0.59596834  0.97415366    -0.57900
O2086       O  0.54422618  0.48402498  0.97728685    -0.94600
O2087       O  0.54889238  0.55097609  0.97704389    -0.93100
O2088       O  0.40733026  0.47091973  0.97457001    -0.93400
O2089       O  0.40739027  0.39754571  0.97405773    -0.92200
C2090       C  0.54608754  0.51782584  0.98031923     1.16900
H2091       H  0.44659128  0.53531399  0.96197792     0.32800
H2092       H  0.45946960  0.38658977  0.96264056     0.43700
H2093       H  0.61313306  0.55251812  0.96387910     0.37200
H2094       H  0.51789199  0.49279709  0.93950270     0.33700
H2095       H  0.34061023  0.37086159  0.96398372     0.25500
H2096       H  0.54714166  0.41294656  0.94047177     0.31400
H2097       H  0.63138338  0.50443352  0.93962516     0.37300
H2098       H  0.42689176  0.50336302  0.97461363     0.31800
H2099       H  0.53470042  0.62818774  0.97376880     0.30600
H2100       H  0.60948046  0.64498180  0.96921828     0.32300
H2101       H  0.66669339  0.60343629  0.95561349     0.31300
H2102       H  0.43596030  0.40423919  0.97611108     0.35300
H2103       H  0.54100325  0.40383555  0.97655966     0.28000
H2104       H  0.45377212  0.55513202  0.93566055     0.32200
H2105       H  0.63568111  0.58981551  0.93782444     0.35100
H2106       H  0.48535216  0.59125469  0.97270679     0.27700
H2107       H  0.58890793  0.42349973  0.97359702     0.40600
H2108       H  0.41029330  0.33346091  0.95258389     0.30600
H2109       H  0.35929043  0.37310690  0.95650525     0.38300
H2110       H  0.64196596  0.62560344  0.95225718     0.30100
H2111       H  0.50194887  0.37479913  0.93773181     0.30200
H2112       H  0.49715371  0.55339499  0.93441643     0.30400
Zr2113     Zr  0.08141194  0.49833546  0.03478906     2.17500
O2114       O  0.13283398  0.49882796  0.02616026    -0.51900
O2115       O  0.13439119  0.57832297  0.03612767    -0.75100
O2116       O  0.06440711  0.50813251  0.02268664    -0.81900
O2117       O  0.12367675  0.44807504  0.04814902    -0.83700
O2118       O  0.99511646  0.49744657  0.02207741    -0.79300
O2119       O  0.13992068  0.48156014  0.03762746    -0.90900
O2120       O  0.11022598  0.60529012  0.04476103    -0.76900
O2121       O  0.04011530  0.53417205  0.03730758    -0.86400
O2122       O  0.08736908  0.51146029  0.04705126    -0.86100
O2123       O  0.00649671  0.44538730  0.03141320    -0.72800
O2124       O  0.05026007  0.42681435  0.04025221    -0.85000
Zr2125     Zr  0.94212569  0.42688113  0.05179002     2.26400
Zr2126     Zr  0.96583359  0.48244856  0.03393635     2.06300
Zr2127     Zr  0.05599954  0.44075023  0.05252944     2.10000
Zr2128     Zr  0.04507232  0.54577955  0.04962093     1.78800
O2129       O  0.06773032  0.37966563  0.05539667    -0.93800
O2130       O  0.03030415  0.60558726  0.04732100    -0.41600
O2131       O  0.01568926  0.47681509  0.05552722    -0.78200
O2132       O  0.97100775  0.49710167  0.04619791    -0.96900
O2133       O  0.93481711  0.41246183  0.03957559    -0.90200
O2134       O  0.98187029  0.38984906  0.04927360    -0.93000
C2135       C  0.13767649  0.61005365  0.04001499     1.00700
C2136       C  0.14830942  0.46349090  0.04277836     1.13700
C2137       C  0.03141905  0.50492867  0.01922830     1.04400
O2138       O  0.97388819  0.55490970  0.03212257    -0.95200
O2139       O  0.89420905  0.46857348  0.03818557    -0.90900
O2140       O  0.87919368  0.43374865  0.04863620    -0.84100
C2141       C  0.86963337  0.45105560  0.04355638     1.11100
O2142       O  0.00510156  0.35130220  0.02785928    -0.97200
Zr2143     Zr  0.97494221  0.37595161  0.03716481     1.88900
O2144       O  0.88426968  0.35134874  0.05060514    -0.73800
O2145       O  0.90699785  0.45061137  0.02529949    -0.53100
O2146       O  0.93029773  0.34787465  0.02667241    -0.97700
O2147       O  0.98813985  0.31776890  0.04126581    -0.55000
O2148       O  0.90006752  0.32356077  0.04100937    -0.74300
C2149       C  0.87463487  0.32117765  0.04603066     0.98000
O2150       O  0.91238310  0.44833997  0.06159938    -0.63100
O2151       O  0.10687029  0.48699960  0.06160151    -0.57900
O2152       O  0.94843163  0.39602385  0.06272328    -0.94600
O2153       O  0.01662113  0.40360313  0.06308871    -0.93100
O2154       O  0.09625476  0.57203286  0.05937589    -0.93400
O2155       O  0.01319790  0.56626814  0.05919176    -0.92200
C2156       C  0.97831940  0.39084381  0.06568453     1.16900
H2157       H  0.11769604  0.52998803  0.04842300     0.32800
H2158       H  0.95409852  0.51093817  0.04747724     0.43700
H2159       H  0.97027353  0.36248486  0.05180025     0.37200
H2160       H  0.00450318  0.43696747  0.02659250     0.33700
H2161       H  0.05544257  0.63221574  0.04940461     0.25500
H2162       H  0.91130905  0.47573201  0.02239042     0.31400
H2163       H  0.90664064  0.35521079  0.02726886     0.37300
H2164       H  0.11198782  0.60461219  0.05900921     0.31800
H2165       H  0.10638697  0.46592811  0.06506232     0.30600
H2166       H  0.08583650  0.38920075  0.05968190     0.32300
H2167       H  0.96492155  0.30131843  0.04476168     0.31300
H2168       H  0.99282282  0.53801825  0.06148339     0.35300
H2169       H  0.93541952  0.45919468  0.06524336     0.28000
H2170       H  0.14368174  0.52651984  0.02350359     0.32200
H2171       H  0.98658302  0.31872238  0.02770568     0.35100
H2172       H  0.13643102  0.50003458  0.05945892     0.27700
H2173       H  0.91238959  0.47530344  0.06006416     0.40600
H2174       H  0.95653528  0.55816813  0.03590918     0.30600
H2175       H  0.03443294  0.61042770  0.04224368     0.38300
H2176       H  0.01575153  0.33339473  0.04398787     0.30100
H2177       H  0.91419735  0.43235613  0.02221213     0.30200
H2178       H  0.11481472  0.47478201  0.02282776     0.30400
Zr2179     Zr  0.09916525  0.56405008  0.94603019     2.17500
O2180       O  0.13721282  0.55110801  0.93646108    -0.51900
O2181       O  0.15522342  0.63965263  0.94823017    -0.75100
O2182       O  0.09615186  0.59882171  0.93541573    -0.81900
O2183       O  0.13880981  0.50946645  0.95855754    -0.83700
O2184       O  0.02875256  0.59226051  0.93426934    -0.79300
O2185       O  0.15855869  0.55099109  0.94876391    -0.90900
O2186       O  0.13206866  0.66561076  0.95715059    -0.76900
O2187       O  0.05837434  0.59967010  0.94861192    -0.86400
O2188       O  0.10229255  0.57225634  0.95835483    -0.86100
O2189       O  0.02701612  0.51613399  0.94145484    -0.72800
O2190       O  0.06860453  0.49127228  0.95065201    -0.85000
Zr2191     Zr  0.95444949  0.48521656  0.96153558     2.26400
Zr2192     Zr  0.98554105  0.55128677  0.94449650     2.06300
Zr2193     Zr  0.06912116  0.49917736  0.96298039     2.10000
Zr2194     Zr  0.06038339  0.60710170  0.96085824     1.78800
O2195       O  0.05599553  0.42464189  0.96473050    -0.93800
O2196       O  0.04864478  0.66724065  0.95736392    -0.41600
O2197       O  0.02763970  0.53453875  0.96554159    -0.78200
O2198       O  0.98621791  0.55933627  0.95695337    -0.96900
O2199       O  0.95312258  0.47816304  0.94915856    -0.90200
O2200       O  0.99589193  0.44971450  0.95891606    -0.93000
C2201       C  0.16036431  0.67004536  0.95251759     1.00700
C2202       C  0.16506543  0.52904968  0.95345362     1.13700
C2203       C  0.06827657  0.60543228  0.93212527     1.04400
O2204       O  0.98047810  0.61782969  0.94328266    -0.95200
O2205       O  0.91234109  0.53530341  0.94796329    -0.90900
O2206       O  0.89666062  0.50176476  0.95848874    -0.84100
C2207       C  0.88730750  0.51850251  0.95329040     1.11100
O2208       O  0.03639031  0.42631447  0.93806262    -0.97200
Zr2209     Zr  0.99579555  0.44435469  0.94649825     1.88900
O2210       O  0.90129793  0.40685867  0.95922474    -0.73800
O2211       O  0.93797914  0.51470337  0.93454569    -0.53100
O2212       O  0.95791960  0.42335854  0.93532907    -0.97700
O2213       O  0.99956684  0.37850699  0.94939482    -0.55000
O2214       O  0.92184150  0.38973195  0.94904754    -0.74300
C2215       C  0.89472605  0.38083306  0.95403560     0.98000
O2216       O  0.90223920  0.47005677  0.97098581    -0.63100
O2217       O  0.12339044  0.52399834  0.97231839    -0.57900
O2218       O  0.97267554  0.48339364  0.97388778    -0.94600
O2219       O  0.04065850  0.49098802  0.97476066    -0.93100
O2220       O  0.10329474  0.62968245  0.97155483    -0.93400
O2221       O  0.02770042  0.62673996  0.97040788    -0.92200
C2222       C  0.00514586  0.48643050  0.97748803     1.16900
H2223       H  0.13227445  0.58970729  0.96000055     0.32800
H2224       H  0.96933009  0.57298473  0.95834315     0.43700
H2225       H  0.98323270  0.42133279  0.96115582     0.37200
H2226       H  0.02823339  0.51365031  0.93646934     0.33700
H2227       H  0.07018096  0.69299272  0.96013103     0.25500
H2228       H  0.93944032  0.53900010  0.93172965     0.31400
H2229       H  0.94141893  0.39067096  0.93533950     0.37300
H2230       H  0.10431594  0.60316945  0.97304575     0.31800
H2231       H  0.13659387  0.50478597  0.97203765     0.30600
H2232       H  0.06646141  0.41759568  0.96038591     0.32300
H2233       H  0.98188153  0.35664481  0.94575306     0.31300
H2234       H  0.00177293  0.59841821  0.97179619     0.35300
H2235       H  0.90265908  0.49817948  0.97187673     0.28000
H2236       H  0.15905538  0.58071426  0.93472153     0.32200
H2237       H  0.05295369  0.45340728  0.93526202     0.35100
H2238       H  0.14717228  0.55350959  0.97086927     0.27700
H2239       H  0.87270207  0.44991129  0.96902127     0.40600
H2240       H  0.97677361  0.62577191  0.94808574     0.30600
H2241       H  0.05986657  0.67422724  0.95253929     0.38300
H2242       H  0.98188533  0.36668261  0.95367686     0.30100
H2243       H  0.95396495  0.50332646  0.93175820     0.30200
H2244       H  0.11516499  0.53754374  0.93268840     0.30400
Zr2245     Zr  0.46341672  0.91267142  0.03186421     2.17500
O2246       O  0.40860546  0.87456293  0.02275455    -0.51900
O2247       O  0.48678669  0.85785494  0.03254350    -0.75100
O2248       O  0.49484512  0.92657614  0.02020022    -0.81900
O2249       O  0.37103103  0.86105117  0.04520241    -0.83700
O2250       O  0.55236149  0.99686439  0.02010847    -0.79300
O2251       O  0.39529179  0.84778417  0.03497234    -0.90900
O2252       O  0.53251902  0.87711587  0.04184087    -0.76900
O2253       O  0.53982858  0.95319761  0.03458041    -0.86400
O2254       O  0.46875457  0.90442264  0.04405310    -0.86100
O2255       O  0.48545737  0.98721500  0.02873698    -0.72800
O2256       O  0.42073843  0.94089643  0.03740345    -0.85000
Zr2257     Zr  0.52904541  0.05103512  0.04935645     2.26400
Zr2258     Zr  0.56206553  0.02775879  0.03167704     2.06300
Zr2259     Zr  0.42795688  0.93357578  0.04960762     2.10000
Zr2260     Zr  0.54470279  0.94604255  0.04680013     1.78800
O2261       O  0.35508382  0.92270062  0.05208225    -0.93800
O2262       O  0.61868252  0.96303969  0.04356941    -0.41600
O2263       O  0.50452437  0.97576780  0.05258764    -0.78200
O2264       O  0.57026483  0.02120699  0.04387892    -0.96900
O2265       O  0.52205861  0.05815532  0.03720382    -0.90200
O2266       O  0.45232078  0.00868327  0.04664659    -0.93000
C2267       C  0.51100107  0.85110953  0.03679287     1.00700
C2268       C  0.36722780  0.83647239  0.03991619     1.13700
C2269       C  0.52520048  0.96058129  0.01706471     1.04400
O2270       O  0.63031092  0.02731123  0.02958472    -0.95200
O2271       O  0.61994696  0.09835208  0.03574839    -0.90900
O2272       O  0.60293578  0.11278340  0.04650819    -0.84100
C2273       C  0.62877171  0.12249744  0.04121268     1.11100
O2274       O  0.38835334  0.98356095  0.02572338    -0.97200
Zr2275     Zr  0.44568059  0.01647411  0.03458327     1.88900
O2276       O  0.51309022  0.11068526  0.04751036    -0.73800
O2277       O  0.58028985  0.08639113  0.02329396    -0.53100
O2278       O  0.46717801  0.06044357  0.02400789    -0.97700
O2279       O  0.37573857  0.00798608  0.03855899    -0.55000
O2280       O  0.46405524  0.08937880  0.03861556    -0.74300
C2281       C  0.48894875  0.11741132  0.04322547     0.98000
O2282       O  0.57506428  0.07923821  0.05975125    -0.63100
O2283       O  0.42596152  0.88446291  0.05869375    -0.57900
O2284       O  0.48796309  0.04191152  0.06008843    -0.94600
O2285       O  0.42975935  0.97170976  0.06035076    -0.93100
O2286       O  0.52513386  0.89543049  0.05653444    -0.93400
O2287       O  0.59524246  0.97456255  0.05662334    -0.92200
C2288       C  0.45357132  0.01043125  0.06301519     1.16900
H2289       H  0.45693990  0.87385055  0.04529816     0.32800
H2290       H  0.60087859  0.03791209  0.04519748     0.43700
H2291       H  0.43590179  0.01960167  0.04917686     0.37200
H2292       H  0.48060143  0.98922547  0.02384749     0.33700
H2293       H  0.62276178  0.94024541  0.04592406     0.25500
H2294       H  0.60249212  0.08576146  0.02018118     0.31400
H2295       H  0.45529800  0.08068160  0.02454482     0.37300
H2296       H  0.54392656  0.88190323  0.05599168     0.31800
H2297       H  0.45255144  0.90288211  0.06153499     0.30600
H2298       H  0.34369510  0.90099192  0.05591094     0.32300
H2299       H  0.38289328  0.02788656  0.04262863     0.31300
H2300       H  0.60252715  0.00567695  0.05711402     0.35300
H2301       H  0.56408750  0.05359140  0.06290383     0.28000
H2302       H  0.41876603  0.85699924  0.02009487     0.32200
H2303       H  0.37930028  0.00571076  0.02480851     0.35100
H2304       H  0.40110241  0.87971134  0.06171699     0.27700
H2305       H  0.60451691  0.08461932  0.05835352     0.40600
H2306       H  0.62094722  0.99729534  0.02779708     0.30600
H2307       H  0.61654599  0.95520361  0.03857680     0.38300
H2308       H  0.35968574  0.97788865  0.04053041     0.30100
H2309       H  0.55361674  0.07571813  0.02037480     0.30200
H2310       H  0.41164743  0.89785355  0.01952086     0.30400
Zr2311     Zr  0.51239553  0.93875012  0.94462056     2.17500
O2312       O  0.46871589  0.91043335  0.93403871    -0.51900
O2313       O  0.52811839  0.87962665  0.94616414    -0.75100
O2314       O  0.56010193  0.95108972  0.93466299    -0.81900
O2315       O  0.41253026  0.89320827  0.95626831    -0.83700
O2316       O  0.62120577  0.01911731  0.93533123    -0.79300
O2317       O  0.43745599  0.87789001  0.94629978    -0.90900
O2318       O  0.56841252  0.89453501  0.95607361    -0.76900
O2319       O  0.58741788  0.97949841  0.94819070    -0.86400
O2320       O  0.51131724  0.92807437  0.95685981    -0.86100
O2321       O  0.53823119  0.01371471  0.94135075    -0.72800
O2322       O  0.46764203  0.96549345  0.94962011    -0.85000
Zr2323     Zr  0.56837505  0.07427027  0.96230225     2.26400
Zr2324     Zr  0.61262576  0.05521371  0.94547446     2.06300
Zr2325     Zr  0.46999959  0.95856086  0.96192692     2.10000
Zr2326     Zr  0.58633347  0.96808159  0.96029845     1.78800
O2327       O  0.40866908  0.96999041  0.96473355    -0.93800
O2328       O  0.65834113  0.97784172  0.95740922    -0.41600
O2329       O  0.54534362  0.99929883  0.96514779    -0.78200
O2330       O  0.61356853  0.04531579  0.95777161    -0.96900
O2331       O  0.56831852  0.08346039  0.95006649    -0.90200
O2332       O  0.49303081  0.03312235  0.95884676    -0.93000
C2333       C  0.54741699  0.86958277  0.95085382     1.00700
C2334       C  0.40735709  0.86944999  0.95085760     1.13700
C2335       C  0.59758452  0.98148966  0.93237743     1.04400
O2336       O  0.68866608  0.07178844  0.94456076    -0.95200
O2337       O  0.66543224  0.12820886  0.94991313    -0.90900
O2338       O  0.64261381  0.13469175  0.96064716    -0.84100
C2339       C  0.67045488  0.14908053  0.95566728     1.11100
O2340       O  0.44244595  0.00272066  0.93687586    -0.97200
Zr2341     Zr  0.49349379  0.03988147  0.94645683     1.88900
O2342       O  0.54130425  0.12653253  0.96058912    -0.73800
O2343       O  0.61960181  0.10138039  0.93558074    -0.53100
O2344       O  0.51511757  0.08522022  0.93603976    -0.97700
O2345       O  0.42075911  0.02981467  0.94899754    -0.55000
O2346       O  0.50755944  0.11055489  0.95009623    -0.74300
C2347       C  0.52196087  0.13429694  0.95555483     0.98000
O2348       O  0.59897890  0.12111565  0.97260447    -0.63100
O2349       O  0.43782008  0.89723318  0.97008776    -0.57900
O2350       O  0.54554914  0.05046887  0.97420447    -0.94600
O2351       O  0.48948645  0.97960566  0.97401913    -0.93100
O2352       O  0.55780511  0.92168829  0.97055289    -0.93400
O2353       O  0.63660550  0.99372615  0.97017053    -0.92200
C2354       C  0.51803416  0.01449481  0.97724802     1.16900
H2355       H  0.49759497  0.89721687  0.95803980     0.32800
H2356       H  0.64333123  0.06208292  0.95953670     0.43700
H2357       H  0.47558978  0.04384547  0.96112072     0.37200
H2358       H  0.53755314  0.01587068  0.93635424     0.33700
H2359       H  0.65832347  0.95194322  0.95946125     0.25500
H2360       H  0.61359299  0.12416507  0.93749676     0.31400
H2361       H  0.49727023  0.09995074  0.93611428     0.37300
H2362       H  0.52797424  0.91752181  0.97122883     0.31800
H2363       H  0.40606095  0.88764728  0.97023279     0.30600
H2364       H  0.40536072  0.96636716  0.96984008     0.32300
H2365       H  0.42584855  0.05634607  0.95163353     0.31300
H2366       H  0.64057896  0.02311844  0.97132460     0.35300
H2367       H  0.62761009  0.12293155  0.97353893     0.28000
H2368       H  0.47710300  0.88957205  0.93202404     0.32200
H2369       H  0.42942498  0.02134716  0.93574882     0.35100
H2370       H  0.43929743  0.87273228  0.96774605     0.27700
H2371       H  0.60651113  0.15120837  0.97115793     0.40600
H2372       H  0.69840829  0.07273823  0.94941915     0.30600
H2373       H  0.65739036  0.97274828  0.95232707     0.38300
H2374       H  0.40775619  0.00563545  0.95242963     0.30100
H2375       H  0.65150139  0.11753571  0.93452373     0.30200
H2376       H  0.48092006  0.93569462  0.93079472     0.30400
C2377       C  0.52252767  0.01177271  0.98484535    -0.05800
C2378       C  0.55283452  0.04926609  0.98863432    -0.05800
C2379       C  0.56171414  0.04570150  0.99558599    -0.23900
C2380       C  0.54054233  0.00458497  0.99887532     0.18300
C2381       C  0.50962415  0.96673222  0.99517399     0.15500
C2382       C  0.50059360  0.97059098  0.98819915    -0.19000
C2383       C  0.48829949  0.92570782  0.99851993    -0.20800
C2384       C  0.49590767  0.92267097  0.00557712    -0.13400
C2385       C  0.52537430  0.96055615  0.00937110     0.03300
C2386       C  0.54886196  0.00108666  0.00587618    -0.25500
H2387       H  0.57045911  0.08132379  0.98619119     0.08400
H2388       H  0.58534790  0.07508029  0.99837814     0.12000
H2389       H  0.47743135  0.94127279  0.98534386     0.11900
H2390       H  0.46469451  0.89626217  0.99574126     0.11700
H2391       H  0.47721420  0.89108234  0.00813120     0.12200
H2392       H  0.57157814  0.03076077  0.00870076     0.14200
C2393       C  0.85370800  0.33745035  0.95350618    -0.05800
C2394       C  0.84445213  0.31375935  0.94718394    -0.05800
C2395       C  0.80717499  0.27248010  0.94642732    -0.23900
C2396       C  0.77803876  0.25365443  0.95196502     0.18300
C2397       C  0.78643876  0.27677376  0.95835732     0.15500
C2398       C  0.82426791  0.31875989  0.95909665    -0.19000
C2399       C  0.75682256  0.25730189  0.96387175    -0.20800
C2400       C  0.71930992  0.21566530  0.96302668    -0.13400
C2401       C  0.71072326  0.19265972  0.95665042     0.03300
C2402       C  0.74054266  0.21202190  0.95115917    -0.25500
H2403       H  0.86612082  0.32710049  0.94274109     0.08400
H2404       H  0.80118687  0.25525302  0.94149358     0.12000
H2405       H  0.83094277  0.33646876  0.96399503     0.11900
H2406       H  0.76256730  0.27427119  0.96882304     0.11700
H2407       H  0.69695992  0.20156994  0.96737471     0.12200
H2408       H  0.73447885  0.19489516  0.94621260     0.14200
C2409       C  0.20245143  0.71236716  0.95227783    -0.05800
C2410       C  0.20881010  0.74810666  0.95648096    -0.05800
C2411       C  0.24987691  0.78644226  0.95681767    -0.23900
C2412       C  0.28537547  0.78962922  0.95298957     0.18300
C2413       C  0.27919469  0.75452316  0.94859418     0.15500
C2414       C  0.23766169  0.71633182  0.94820208    -0.19000
C2415       C  0.31497057  0.75777454  0.94481420    -0.20800
C2416       C  0.35669087  0.79532372  0.94545608    -0.13400
C2417       C  0.36324155  0.83012927  0.94989635     0.03300
C2418       C  0.32715113  0.82707261  0.95359653    -0.25500
H2419       H  0.18226801  0.74614961  0.95963153     0.08400
H2420       H  0.25410808  0.81322016  0.96018991     0.12000
H2421       H  0.23331604  0.68913632  0.94492019     0.11900
H2422       H  0.31081354  0.73105562  0.94143579     0.11700
H2423       H  0.38394230  0.79679933  0.94257310     0.12200
H2424       H  0.33153664  0.85377920  0.95700487     0.14200
C2425       C  0.83005881  0.28234899  0.04641160    -0.05800
C2426       C  0.81045693  0.26483645  0.05287371    -0.05800
C2427       C  0.76647482  0.23094286  0.05324897    -0.23900
C2428       C  0.74114485  0.21461524  0.04717097     0.18300
C2429       C  0.76073395  0.23257107  0.04066774     0.15500
C2430       C  0.80503862  0.26589107  0.04032690    -0.19000
C2431       C  0.73574292  0.21691210  0.03458576    -0.20800
C2432       C  0.69227267  0.18254574  0.03488272    -0.13400
C2433       C  0.67253869  0.16326308  0.04127037     0.03300
C2434       C  0.69692131  0.18022007  0.04744470    -0.25500
H2435       H  0.82918639  0.27758765  0.05763603     0.08400
H2436       H  0.75221269  0.21776926  0.05828630     0.12000
H2437       H  0.81968881  0.28005528  0.03534379     0.11900
H2438       H  0.75009002  0.23061033  0.02957243     0.11700
H2439       H  0.67421534  0.17030718  0.03005302     0.12200
H2440       H  0.68223434  0.16544311  0.05239140     0.14200
C2441       C  0.32823413  0.79173331  0.03936739    -0.05800
C2442       C  0.33271535  0.75692907  0.03656426    -0.05800
C2443       C  0.29612939  0.71464713  0.03579503    -0.23900
C2444       C  0.25414840  0.70646781  0.03770377     0.18300
C2445       C  0.24922202  0.74158609  0.04037262     0.15500
C2446       C  0.28629136  0.78381132  0.04126397    -0.19000
C2447       C  0.20731164  0.73380191  0.04216946    -0.20800
C2448       C  0.17098546  0.69135444  0.04165016    -0.13400
C2449       C  0.17556761  0.65558092  0.03930597     0.03300
C2450       C  0.21723595  0.66366181  0.03715107    -0.25500
H2451       H  0.36479147  0.76238904  0.03502895     0.08400
H2452       H  0.30070536  0.68835692  0.03372223     0.12000
H2453       H  0.28245474  0.81063409  0.04331237     0.11900
H2454       H  0.20273286  0.76033143  0.04413143     0.11700
H2455       H  0.13920765  0.68627187  0.04328298     0.12200
H2456       H  0.22129733  0.63646271  0.03537045     0.14200
C2457       C  0.03423631  0.50652387  0.01144207    -0.05800
C2458       C  0.07386824  0.51669686  0.00807006    -0.05800
C2459       C  0.07596754  0.51461212  0.00080795    -0.23900
C2460       C  0.03840116  0.50196499  0.99670884     0.18300
C2461       C  0.99833020  0.49164530  0.99998228     0.15500
C2462       C  0.99650836  0.49418260  0.00730054    -0.19000
C2463       C  0.96067683  0.47860623  0.99587486    -0.20800
C2464       C  0.96277171  0.47632890  0.98861028    -0.13400
C2465       C  0.00250330  0.48679350  0.98525810     0.03300
C2466       C  0.04026449  0.49945792  0.98939953    -0.25500
H2467       H  0.10337175  0.52584361  0.01105660     0.08400
H2468       H  0.10700255  0.52253450  0.99839917     0.12000
H2469       H  0.96543410  0.48557117  0.00976540     0.11900
H2470       H  0.92953901  0.47031069  0.99828113     0.11700
H2471       H  0.93315790  0.46646590  0.98561064     0.12200
H2472       H  0.07134019  0.50796020  0.98694333     0.14200
C2473       C  0.69508865  0.50192465  0.95880600    -0.05800
C2474       C  0.70462425  0.48144635  0.96427551    -0.05800
C2475       C  0.74426603  0.48079989  0.96436634    -0.23900
C2476       C  0.77506614  0.50050866  0.95898125     0.18300
C2477       C  0.76582671  0.52134271  0.95350201     0.15500
C2478       C  0.72624696  0.52204371  0.95346099    -0.19000
C2479       C  0.79614606  0.54092927  0.94809052    -0.20800
C2480       C  0.83530697  0.53980262  0.94806057    -0.13400
C2481       C  0.84522097  0.51916083  0.95345226     0.03300
C2482       C  0.81477228  0.49960630  0.95893875    -0.25500
H2483       H  0.68127398  0.46551860  0.96845320     0.08400
H2484       H  0.75067162  0.46460848  0.96861862     0.12000
H2485       H  0.71963162  0.53800570  0.94919412     0.11900
H2486       H  0.78951098  0.55704446  0.94385142     0.11700
H2487       H  0.85791669  0.55528021  0.94378136     0.12200
H2488       H  0.82176818  0.48355201  0.96314604     0.14200
C2489       C  0.32400945  0.48432462  0.95533711    -0.05800
C2490       C  0.29014311  0.45766936  0.95999996    -0.05800
C2491       C  0.25211798  0.46069285  0.96045627    -0.23900
C2492       C  0.24723856  0.49056093  0.95628455     0.18300
C2493       C  0.28038542  0.51669677  0.95143848     0.15500
C2494       C  0.31850579  0.51332664  0.95097362    -0.19000
C2495       C  0.27515471  0.54631555  0.94723489    -0.20800
C2496       C  0.23777562  0.55050764  0.94791373    -0.13400
C2497       C  0.20500026  0.52519900  0.95281849     0.03300
C2498       C  0.20991935  0.49500216  0.95695065    -0.25500
H2499       H  0.29322611  0.43479345  0.96339760     0.08400
H2500       H  0.22684450  0.44016446  0.96415662     0.12000
H2501       H  0.34424271  0.53406914  0.94734956     0.11900
H2502       H  0.30008304  0.56645570  0.94346271     0.11700
H2503       H  0.23469013  0.57378954  0.94461361     0.12200
H2504       H  0.18468515  0.47479913  0.96068293     0.14200
C2505       C  0.51430736  0.17223645  0.95579468    -0.05800
C2506       C  0.48682264  0.17481333  0.95068364    -0.05800
C2507       C  0.48040973  0.21076729  0.95036591    -0.23900
C2508       C  0.50119626  0.24513723  0.95515439     0.18300
C2509       C  0.52768443  0.24262907  0.96048022     0.15500
C2510       C  0.53407787  0.20604657  0.96078775    -0.19000
C2511       C  0.54795154  0.27722313  0.96530120    -0.20800
C2512       C  0.54306885  0.31430061  0.96471334    -0.13400
C2513       C  0.51789123  0.31747831  0.95928381     0.03300
C2514       C  0.49646962  0.28234057  0.95458961    -0.25500
H2515       H  0.47032400  0.14907393  0.94681159     0.08400
H2516       H  0.45966611  0.21193920  0.94629984     0.12000
H2517       H  0.55503035  0.20443239  0.96477191     0.11900
H2518       H  0.56813698  0.27596381  0.96944947     0.11700
H2519       H  0.55988852  0.34093479  0.96843516     0.12200
H2520       H  0.47658507  0.28412387  0.95043086     0.14200
C2521       C  0.54257263  0.82511889  0.95034221    -0.05800
C2522       C  0.53823357  0.80486842  0.94381748    -0.05800
C2523       C  0.52889261  0.76104320  0.94333056    -0.23900
C2524       C  0.52256865  0.73624434  0.94936433     0.18300
C2525       C  0.52644233  0.75636858  0.95593874     0.15500
C2526       C  0.53715615  0.80070352  0.95638594    -0.19000
C2527       C  0.51893829  0.73170085  0.96198540    -0.20800
C2528       C  0.50911957  0.68801057  0.96156449    -0.13400
C2529       C  0.50694549  0.66789071  0.95509912     0.03300
C2530       C  0.51279798  0.69193383  0.94897075    -0.25500
H2531       H  0.54179930  0.82294826  0.93907985     0.08400
H2532       H  0.52595677  0.74638282  0.93823961     0.12000
H2533       H  0.53942104  0.81564564  0.96143827     0.11900
H2534       H  0.52112855  0.74632781  0.96705809     0.11700
H2535       H  0.50424835  0.67009907  0.96636487     0.12200
H2536       H  0.51142341  0.67687623  0.94396556     0.14200
C2537       C  0.71471707  0.50222492  0.04430500    -0.05800
C2538       C  0.74895047  0.53081934  0.03982545    -0.05800
C2539       C  0.78508254  0.52531475  0.03860006    -0.23900
C2540       C  0.78803452  0.49127102  0.04185572     0.18300
C2541       C  0.75437400  0.46269622  0.04645477     0.15500
C2542       C  0.71793541  0.46834735  0.04765941    -0.19000
C2543       C  0.75779792  0.42896422  0.04976486    -0.20800
C2544       C  0.79470259  0.42433924  0.04866722    -0.13400
C2545       C  0.82852544  0.45289720  0.04414898     0.03300
C2546       C  0.82451577  0.48587205  0.04066861    -0.25500
H2547       H  0.74759865  0.55727411  0.03715375     0.08400
H2548       H  0.81066021  0.54764084  0.03508407     0.12000
H2549       H  0.69179035  0.44587141  0.05108269     0.11900
H2550       H  0.73230282  0.40661788  0.05328725     0.11700
H2551       H  0.79700407  0.39864152  0.05141598     0.12200
H2552       H  0.85058219  0.50845578  0.03723948     0.14200
C2553       C  0.18908534  0.46013012  0.04276534    -0.05800
C2554       C  0.19665540  0.43874654  0.04834304    -0.05800
C2555       C  0.23562192  0.43750470  0.04883891    -0.23900
C2556       C  0.26829414  0.45765504  0.04378071     0.18300
C2557       C  0.26105756  0.47822996  0.03802908     0.15500
C2558       C  0.22134255  0.47915622  0.03752242    -0.19000
C2559       C  0.29420592  0.49841310  0.03299646    -0.20800
C2560       C  0.33434774  0.49921351  0.03376146    -0.13400
C2561       C  0.34216377  0.47956601  0.03955089     0.03300
C2562       C  0.30844048  0.45827554  0.04449022    -0.25500
H2563       H  0.17263520  0.42335768  0.05245151     0.08400
H2564       H  0.24049269  0.42138405  0.05326471     0.12000
H2565       H  0.21614058  0.49558230  0.03317341     0.11900
H2566       H  0.28941590  0.51426253  0.02852838     0.11700
H2567       H  0.35951668  0.51578151  0.02984749     0.12200
H2568       H  0.31367744  0.44294944  0.04899104     0.14200
C2569       C  0.49066486  0.16077594  0.04333418    -0.05800
C2570       C  0.46373553  0.16817066  0.03875463    -0.05800
C2571       C  0.46765857  0.20970627  0.03823846    -0.23900
C2572       C  0.49859273  0.24493393  0.04228828     0.18300
C2573       C  0.52513589  0.23801003  0.04705099     0.15500
C2574       C  0.52086510  0.19590124  0.04757876    -0.19000
C2575       C  0.55599178  0.27357068  0.05110227    -0.20800
C2576       C  0.56055344  0.31550182  0.05042003    -0.13400
C2577       C  0.53449593  0.32272342  0.04565077     0.03300
C2578       C  0.50350908  0.28703223  0.04160290    -0.25500
H2579       H  0.44002082  0.14197758  0.03543121     0.08400
H2580       H  0.44689183  0.21440956  0.03458581     0.12000
H2581       H  0.54184730  0.19088908  0.05114075     0.11900
H2582       H  0.57670868  0.26900862  0.05478068     0.11700
H2583       H  0.58467102  0.34234614  0.05360271     0.12200
H2584       H  0.48280970  0.29181969  0.03794350     0.14200
C2585       C  0.53242842  0.67852018  0.04162290    -0.05800
C2586       C  0.55899398  0.71250905  0.04630782    -0.05800
C2587       C  0.56174764  0.75350519  0.04596220    -0.23900
C2588       C  0.53787459  0.76152292  0.04093978     0.18300
C2589       C  0.51188724  0.72837646  0.03604801     0.15500
C2590       C  0.50940849  0.68696556  0.03639411    -0.19000
C2591       C  0.48820623  0.73711716  0.03102879    -0.20800
C2592       C  0.48888120  0.77757555  0.03107006    -0.13400
C2593       C  0.51350802  0.81007204  0.03610091     0.03300
C2594       C  0.53879433  0.80192689  0.04089684    -0.25500
H2595       H  0.57758976  0.70741490  0.05031835     0.08400
H2596       H  0.58205372  0.77877081  0.04971597     0.12000
H2597       H  0.48893892  0.66123681  0.03271196     0.11900
H2598       H  0.46835238  0.71232322  0.02718478     0.11700
H2599       H  0.46927742  0.78294511  0.02727990     0.12200
H2600       H  0.55828939  0.82653960  0.04479134     0.14200
C2601       C  0.53980963  0.51645476  0.98795797    -0.05800
C2602       C  0.54837931  0.55474910  0.99166107    -0.05800
C2603       C  0.53654671  0.55236800  0.99865636    -0.23900
C2604       C  0.51562946  0.51160675  0.00207294     0.18300
C2605       C  0.50726394  0.47296819  0.99844021     0.15500
C2606       C  0.51963234  0.47566507  0.99143327    -0.19000
C2607       C  0.48668251  0.43226965  0.00188258    -0.20800
C2608       C  0.47617446  0.43014467  0.00894190    -0.13400
C2609       C  0.48525347  0.46854935  0.01265287     0.03300
C2610       C  0.50396654  0.50904374  0.00910856    -0.25500
H2611       H  0.56350325  0.58651490  0.98910910     0.08400
H2612       H  0.54340025  0.58236367  0.00137637     0.12000
H2613       H  0.51215240  0.44572710  0.98863169     0.11900
H2614       H  0.47986986  0.40227346  0.99916804     0.11700
H2615       H  0.46229085  0.39866180  0.01156107     0.12200
H2616       H  0.51203521  0.53910160  0.01192107     0.14200
C2617       C  0.95573049  0.27630724  0.09367767    -0.05800
C2618       C  0.99155589  0.28066857  0.08975126    -0.05800
C2619       C  0.00376247  0.30482672  0.08357329    -0.23900
C2620       C  0.98027240  0.32491592  0.08118872     0.18300
C2621       C  0.94402269  0.32045245  0.08505837     0.15500
C2622       C  0.93209595  0.29637916  0.09125890    -0.19000
C2623       C  0.92006697  0.33992318  0.08264454    -0.20800
C2624       C  0.93151632  0.36312648  0.07639071    -0.13400
C2625       C  0.96749207  0.36779663  0.07246894     0.03300
C2626       C  0.99206269  0.34892632  0.07496194    -0.25500
H2627       H  0.01031874  0.26555326  0.09146230     0.08400
H2628       H  0.03152602  0.30771690  0.08065296     0.12000
H2629       H  0.90431015  0.29337042  0.09419299     0.11900
H2630       H  0.89219015  0.33683833  0.08555799     0.11700
H2631       H  0.91212350  0.37743016  0.07462045     0.12200
H2632       H  0.01969984  0.35197913  0.07197957     0.14200
C2633       C  0.85046620  0.16058415  0.17878104    -0.05800
C2634       C  0.81516091  0.15855801  0.17501272    -0.05800
C2635       C  0.81045084  0.14877441  0.16787862    -0.23900
C2636       C  0.84083563  0.14060928  0.16436161     0.18300
C2637       C  0.87615700  0.14210164  0.16808365     0.15500
C2638       C  0.88082293  0.15216820  0.17522862    -0.19000
C2639       C  0.90651128  0.13386143  0.16458727    -0.20800
C2640       C  0.90301323  0.12597853  0.15740996    -0.13400
C2641       C  0.86896690  0.12596516  0.15356856     0.03300
C2642       C  0.83720425  0.13216473  0.15715912    -0.25500
H2643       H  0.79092014  0.16420908  0.17758653     0.08400
H2644       H  0.78304542  0.14766782  0.16510866     0.12000
H2645       H  0.90802702  0.15301485  0.17802561     0.11900
H2646       H  0.93370807  0.13466432  0.16737605     0.11700
H2647       H  0.92808692  0.12167542  0.15482947     0.12200
H2648       H  0.81072281  0.13250114  0.15431627     0.14200
C2649       C  0.07560475  0.16629994  0.12247832    -0.05800
C2650       C  0.10625372  0.18660173  0.11705940    -0.05800
C2651       C  0.14514272  0.18495785  0.11684242    -0.23900
C2652       C  0.15442993  0.16289535  0.12202642     0.18300
C2653       C  0.12449976  0.14264041  0.12755039     0.15500
C2654       C  0.08530439  0.14461919  0.12776636    -0.19000
C2655       C  0.13417547  0.12034526  0.13269247    -0.20800
C2656       C  0.17282777  0.11778583  0.13230788    -0.13400
C2657       C  0.20269579  0.13777634  0.12679870     0.03300
C2658       C  0.19307724  0.16049238  0.12170339    -0.25500
H2659       H  0.10013774  0.20369207  0.11291831     0.08400
H2660       H  0.16783401  0.20068957  0.11257245     0.12000
H2661       H  0.06216690  0.12872599  0.13197508     0.11900
H2662       H  0.11168326  0.10457864  0.13697931     0.11700
H2663       H  0.17925792  0.10009919  0.13631022     0.12200
H2664       H  0.21540463  0.17595376  0.11738212     0.14200
C2665       C  0.56069823  0.13099114  0.12214090    -0.05800
C2666       C  0.56937398  0.10878985  0.12745007    -0.05800
C2667       C  0.61148089  0.11505761  0.12841027    -0.23900
C2668       C  0.64597679  0.14342193  0.12405501     0.18300
C2669       C  0.63790030  0.16559001  0.11863660     0.15500
C2670       C  0.59537190  0.15948670  0.11773203    -0.19000
C2671       C  0.67252834  0.19333421  0.11421543    -0.20800
C2672       C  0.71458024  0.19888253  0.11514169    -0.13400
C2673       C  0.72304131  0.17728810  0.12056966     0.03300
C2674       C  0.68833424  0.14962062  0.12501744    -0.25500
H2675       H  0.54364403  0.08677362  0.13096363     0.08400
H2676       H  0.61704444  0.09768498  0.13257558     0.12000
H2677       H  0.58940380  0.17696867  0.11363051     0.11900
H2678       H  0.66704011  0.21049388  0.11000956     0.11700
H2679       H  0.74050070  0.22012488  0.11159133     0.12200
H2680       H  0.69399392  0.13221793  0.12917008     0.14200
C2681       C  0.42924876  0.08255881  0.09331176    -0.05800
C2682       C  0.46889628  0.11421313  0.09019414    -0.05800
C2683       C  0.48117504  0.10667313  0.08363564    -0.23900
C2684       C  0.45426289  0.06717219  0.08004905     0.18300
C2685       C  0.41435819  0.03502830  0.08309843     0.15500
C2686       C  0.40204057  0.04290968  0.08968907    -0.19000
C2687       C  0.38752803  0.99548316  0.07950781    -0.20800
C2688       C  0.40027973  0.98766406  0.07300136    -0.13400
C2689       C  0.44009385  0.01927800  0.06991460     0.03300
C2690       C  0.46678142  0.05923016  0.07348693    -0.25500
H2691       H  0.49047292  0.14516147  0.09280535     0.08400
H2692       H  0.51184148  0.13175985  0.08137593     0.12000
H2693       H  0.37141382  0.01807113  0.09199889     0.11900
H2694       H  0.35673441  0.97046976  0.08174387     0.11700
H2695       H  0.37879650  0.95670126  0.07038565     0.12200
H2696       H  0.49752550  0.08404333  0.07120513     0.14200
C2697       C  0.34377907  0.14382339  0.15400199    -0.05800
C2698       C  0.30466776  0.11719657  0.15767469    -0.05800
C2699       C  0.30466923  0.11729400  0.16496818    -0.23900
C2700       C  0.34388122  0.14360718  0.16868304     0.18300
C2701       C  0.38323234  0.17023253  0.16501282     0.15500
C2702       C  0.38285707  0.17033961  0.15775684    -0.19000
C2703       C  0.42259557  0.19638636  0.16863982    -0.20800
C2704       C  0.42299122  0.19693880  0.17588431    -0.13400
C2705       C  0.38408062  0.17115143  0.17964671     0.03300
C2706       C  0.34455543  0.14407215  0.17598845    -0.25500
H2707       H  0.27425077  0.09616222  0.15491876     0.08400
H2708       H  0.27413017  0.09659310  0.16769922     0.12000
H2709       H  0.41359509  0.19062485  0.15504310     0.11900
H2710       H  0.45307264  0.21677571  0.16586970     0.11700
H2711       H  0.45381185  0.21793263  0.17854162     0.12200
H2712       H  0.31416501  0.12410062  0.17880555     0.14200
C2713       C  0.66457069  0.15144967  0.21028877    -0.05800
C2714       C  0.63469990  0.13166239  0.21581035    -0.05800
C2715       C  0.59657524  0.13447770  0.21625552    -0.23900
C2716       C  0.58729499  0.15722695  0.21120132     0.18300
C2717       C  0.61642732  0.17688097  0.20555788     0.15500
C2718       C  0.65490786  0.17374615  0.20511008    -0.19000
C2719       C  0.60671161  0.19977902  0.20054167    -0.20800
C2720       C  0.56894142  0.20367566  0.20118556    -0.13400
C2721       C  0.54008612  0.18465603  0.20685101     0.03300
C2722       C  0.54951323  0.16102661  0.21178953    -0.25500
H2723       H  0.64087670  0.11412407  0.21987019     0.08400
H2724       H  0.57452830  0.11919137  0.22061120     0.12000
H2725       H  0.67754699  0.18927881  0.20082784     0.11900
H2726       H  0.62852982  0.21505979  0.19616271     0.11700
H2727       H  0.56259145  0.22196490  0.19728040     0.12200
H2728       H  0.52774509  0.14595154  0.21618410     0.14200
C2729       C  0.18456538  0.20100580  0.21135934    -0.05800
C2730       C  0.17476581  0.22254714  0.20607983    -0.05800
C2731       C  0.13212493  0.21531299  0.20519407    -0.23900
C2732       C  0.09797441  0.18640246  0.20957181     0.39900
C2733       C  0.10705000  0.16493617  0.21497645     0.15500
C2734       C  0.15024353  0.17232086  0.21584478    -0.19000
C2735       C  0.07260926  0.13619257  0.21936578    -0.20800
C2736       C  0.02979238  0.12881296  0.21840274    -0.13400
C2737       C  0.02030255  0.14977216  0.21299774     0.03300
C2738       C  0.05491474  0.17863376  0.20860308    -0.25500
H2739       H  0.20003092  0.24468115  0.20251479     0.08400
H2740       H  0.12580581  0.23214112  0.20102902     0.12000
H2741       H  0.15687329  0.15520427  0.21992500     0.11900
H2742       H  0.07876588  0.11938533  0.22355036     0.11700
H2743       H  0.00406276  0.10654045  0.22189439     0.12200
H2744       H  0.04852537  0.19538675  0.20443215     0.14200
C2745       C  0.87880714  0.98423423  0.12601246    -0.05800
C2746       C  0.89855803  0.97427530  0.13153729    -0.05800
C2747       C  0.89452632  0.93243975  0.13202499    -0.23900
C2748       C  0.87083124  0.89983679  0.12698439     0.18300
C2749       C  0.85078994  0.90950517  0.12143578     0.15500
C2750       C  0.85482268  0.95132762  0.12099301    -0.19000
C2751       C  0.82731207  0.87734113  0.11635937    -0.20800
C2752       C  0.82420874  0.83606855  0.11670081    -0.13400
C2753       C  0.84449799  0.82593221  0.12213326     0.03300
C2754       C  0.86739089  0.85803880  0.12732342    -0.25500
H2755       H  0.91724532  0.99883726  0.13547551     0.08400
H2756       H  0.91020001  0.92569320  0.13631820     0.12000
H2757       H  0.83948755  0.95825257  0.11666615     0.11900
H2758       H  0.81173339  0.88426865  0.11206981     0.11700
H2759       H  0.80636932  0.81228646  0.11262058     0.12200
H2760       H  0.88333050  0.85094709  0.13153833     0.14200
C2761       C  0.85912245  0.47524658  0.11935733    -0.05800
C2762       C  0.83487705  0.44264994  0.11433035    -0.05800
C2763       C  0.83977170  0.40561503  0.11362830    -0.23900
C2764       C  0.86924799  0.40062476  0.11790116     0.18300
C2765       C  0.89398046  0.43328211  0.12294649     0.15500
C2766       C  0.88865019  0.47021012  0.12366528    -0.19000
C2767       C  0.92366454  0.42848386  0.12718921    -0.20800
C2768       C  0.92852245  0.39145669  0.12648576    -0.13400
C2769       C  0.90370495  0.35837114  0.12153377     0.03300
C2770       C  0.87421144  0.36341564  0.11722869    -0.25500
H2771       H  0.81189179  0.44562837  0.11094271     0.08400
H2772       H  0.82053947  0.38091041  0.10973389     0.12000
H2773       H  0.90784076  0.49517302  0.12753519     0.11900
H2774       H  0.94295326  0.45322706  0.13107809     0.11700
H2775       H  0.95142328  0.38855353  0.12990493     0.12200
H2776       H  0.85474082  0.33823836  0.11340695     0.14200
C2777       C  0.03053266  0.82742759  0.12494896    -0.05800
C2778       C  0.04258813  0.85466283  0.13089090    -0.05800
C2779       C  0.08450544  0.89263170  0.13136831    -0.23900
C2780       C  0.11517087  0.90397795  0.12592381     0.18300
C2781       C  0.10341769  0.87668886  0.11997296     0.15500
C2782       C  0.06151160  0.83911205  0.11951398    -0.19000
C2783       C  0.13377789  0.88717933  0.11454741    -0.20800
C2784       C  0.17552410  0.92466041  0.11496213    -0.13400
C2785       C  0.18792603  0.95265231  0.12080740     0.03300
C2786       C  0.15731960  0.94193222  0.12630042    -0.25500
H2787       H  0.01978028  0.84652900  0.13517572     0.08400
H2788       H  0.09298691  0.91303166  0.13600428     0.12000
H2789       H  0.05325993  0.81877628  0.11487088     0.11900
H2790       H  0.12522236  0.86631979  0.10996276     0.11700
H2791       H  0.19809915  0.93171602  0.11067247     0.12200
H2792       H  0.16616523  0.96301047  0.13086317     0.14200
C2793       C  0.68003271  0.45523310  0.11883558    -0.05800
C2794       C  0.66610748  0.43304149  0.11241740    -0.05800
C2795       C  0.63214257  0.38909933  0.11212161    -0.23900
C2796       C  0.61185114  0.36647208  0.11824836     0.18300
C2797       C  0.62605226  0.38842662  0.12473080     0.15500
C2798       C  0.65983663  0.43262876  0.12498035    -0.19000
C2799       C  0.60594219  0.36595806  0.13086180    -0.20800
C2800       C  0.57106471  0.32259179  0.13057183    -0.13400
C2801       C  0.55579344  0.30069686  0.12415057     0.03300
C2802       C  0.57704805  0.32260590  0.11799999    -0.25500
H2803       H  0.68124342  0.44984524  0.10761318     0.08400
H2804       H  0.62167085  0.37288233  0.10710474     0.12000
H2805       H  0.67074865  0.44927872  0.12996409     0.11900
H2806       H  0.61661890  0.38218676  0.13587532     0.11700
H2807       H  0.55547236  0.30639377  0.13539090     0.12200
H2808       H  0.56543928  0.30621779  0.11301381     0.14200
C2809       C  0.63952670  0.56474328  0.07218821    -0.05800
C2810       C  0.63818681  0.59740490  0.07632802    -0.05800
C2811       C  0.66371743  0.61341197  0.08237975    -0.23900
C2812       C  0.69128868  0.59719723  0.08444671     0.18300
C2813       C  0.69273508  0.56418208  0.08037216     0.15500
C2814       C  0.66697666  0.54821584  0.07429590    -0.19000
C2815       C  0.71980854  0.54748826  0.08245841    -0.20800
C2816       C  0.74461736  0.56271066  0.08856821    -0.13400
C2817       C  0.74345408  0.59540708  0.09271617     0.03300
C2818       C  0.71699585  0.61297865  0.09055015    -0.25500
H2819       H  0.61728750  0.61067819  0.07489273     0.08400
H2820       H  0.66184716  0.63849481  0.08544753     0.12000
H2821       H  0.66863323  0.52315109  0.07118533     0.11900
H2822       H  0.72146388  0.52224930  0.07940028     0.11700
H2823       H  0.76478342  0.54869206  0.09005890     0.12200
H2824       H  0.71547301  0.63798240  0.09369784     0.14200
C2825       C  0.08069130  0.86312170  0.21109473    -0.05800
C2826       C  0.11635215  0.87125714  0.20676563    -0.05800
C2827       C  0.15389949  0.91286985  0.20652734    -0.23900
C2828       C  0.15660868  0.94749796  0.21056927     0.18300
C2829       C  0.12151121  0.94006149  0.21502305     0.15500
C2830       C  0.08379040  0.89777683  0.21529804    -0.19000
C2831       C  0.12460538  0.97528538  0.21901330    -0.20800
C2832       C  0.16184383  0.01747751  0.21850860    -0.13400
C2833       C  0.19662398  0.02508810  0.21401661     0.03300
C2834       C  0.19372967  0.98961397  0.21011794    -0.25500
H2835       H  0.11522478  0.84544200  0.20348751     0.08400
H2836       H  0.18062883  0.91810468  0.20309748     0.12000
H2837       H  0.05665929  0.89218043  0.21866030     0.11900
H2838       H  0.09805229  0.97033365  0.22245820     0.11700
H2839       H  0.16313438  0.04422992  0.22155616     0.12200
H2840       H  0.22033253  0.99472567  0.20666379     0.14200
C2841       C  0.71662305  0.49948805  0.20661921    -0.05800
C2842       C  0.70864799  0.46569027  0.20183943    -0.05800
C2843       C  0.66677178  0.42782270  0.20135278    -0.23900
C2844       C  0.63210147  0.42312586  0.20562209     0.18300
C2845       C  0.63985892  0.45710958  0.21039137     0.15500
C2846       C  0.68170835  0.49472464  0.21085665    -0.19000
C2847       C  0.60573926  0.45295167  0.21468442    -0.20800
C2848       C  0.56437045  0.41504622  0.21437471    -0.13400
C2849       C  0.55598809  0.38033487  0.20974952     0.03300
C2850       C  0.59005587  0.38496461  0.20529299    -0.25500
H2851       H  0.73484369  0.46831415  0.19852693     0.08400
H2852       H  0.66157392  0.40211928  0.19766598     0.12000
H2853       H  0.68694442  0.52042155  0.21455453     0.11900
H2854       H  0.61116788  0.47886202  0.21834885     0.11700
H2855       H  0.53894390  0.41283335  0.21783379     0.12200
H2856       H  0.58423397  0.35858979  0.20170295     0.14200
C2857       C  0.87856710  0.84050532  0.21265597    -0.05800
C2858       C  0.90170837  0.87220366  0.21787363    -0.05800
C2859       C  0.89487889  0.90779666  0.21891159    -0.23900
C2860       C  0.86454833  0.91227957  0.21479123     0.18300
C2861       C  0.84002012  0.87992846  0.20969095     0.15500
C2862       C  0.84724952  0.84435664  0.20863795    -0.19000
C2863       C  0.80917942  0.88409538  0.20564945    -0.20800
C2864       C  0.80390565  0.92082247  0.20646481    -0.13400
C2865       C  0.82948722  0.95419867  0.21132565     0.03300
C2866       C  0.85912026  0.94911174  0.21558444    -0.25500
H2867       H  0.92574413  0.86996924  0.22110765     0.08400
H2868       H  0.91372020  0.93209160  0.22288210     0.12000
H2869       H  0.82874012  0.81995096  0.20466032     0.11900
H2870       H  0.78976402  0.85941766  0.20176146     0.11700
H2871       H  0.78056458  0.92359506  0.20313369     0.12200
H2872       H  0.87897589  0.97438839  0.21937059     0.14200
C2873       C  0.89973859  0.49393929  0.21026830    -0.05800
C2874       C  0.91726022  0.48304095  0.21600947    -0.05800
C2875       C  0.91369662  0.44152776  0.21651325    -0.23900
C2876       C  0.89214422  0.40952886  0.21132199     0.18300
C2877       C  0.87431846  0.41965347  0.20551337     0.15500
C2878       C  0.87856479  0.46187978  0.20498135    -0.19000
C2879       C  0.85185496  0.38702213  0.20041475    -0.20800
C2880       C  0.84681703  0.34480971  0.20109390    -0.13400
C2881       C  0.86462650  0.33437630  0.20684082     0.03300
C2882       C  0.88758189  0.36736548  0.21191726    -0.25500
H2883       H  0.93351707  0.50655000  0.22018920     0.08400
H2884       H  0.92736476  0.43426715  0.22102733     0.12000
H2885       H  0.86460782  0.46936615  0.20052871     0.11900
H2886       H  0.83773094  0.39398265  0.19593049     0.11700
H2887       H  0.82890621  0.32030526  0.19710815     0.12200
H2888       H  0.90139482  0.36013034  0.21641760     0.14200
C2889       C  0.86316086  0.65767882  0.17832842    -0.05800
C2890       C  0.84265182  0.67832856  0.17498015    -0.05800
C2891       C  0.84753761  0.68646549  0.16784262    -0.23900
C2892       C  0.87328483  0.67437969  0.16385221     0.18300
C2893       C  0.89328681  0.65256099  0.16706930     0.15500
C2894       C  0.88796247  0.64412690  0.17429181    -0.19000
C2895       C  0.91835858  0.63982892  0.16299134    -0.20800
C2896       C  0.92253278  0.64760151  0.15580555    -0.13400
C2897       C  0.90261473  0.66919339  0.15255932     0.03300
C2898       C  0.87862663  0.68313897  0.15667343    -0.25500
H2899       H  0.82332835  0.68906789  0.17792975     0.08400
H2900       H  0.83155607  0.70276380  0.16545706     0.12000
H2901       H  0.90434602  0.62858251  0.17679471     0.11900
H2902       H  0.93395466  0.62301462  0.16532913     0.11700
H2903       H  0.94060797  0.63585751  0.15274619     0.12200
H2904       H  0.86212078  0.69874821  0.15422763     0.14200
C2905       C  0.77369859  0.02928403  0.23816840    -0.05800
C2906       C  0.73031931  0.01404140  0.24048471    -0.05800
C2907       C  0.71433622  0.98869037  0.24651868    -0.23900
C2908       C  0.74135936  0.97806521  0.25044146     0.18300
C2909       C  0.78472939  0.99238404  0.24814220     0.15500
C2910       C  0.80059514  0.01771030  0.24202314    -0.19000
C2911       C  0.81164485  0.98153837  0.25205573    -0.20800
C2912       C  0.79621937  0.95775041  0.25824912    -0.13400
C2913       C  0.75339931  0.94403242  0.26070301     0.03300
C2914       C  0.72592606  0.95394842  0.25667114    -0.25500
H2915       H  0.70846368  0.02170713  0.23762085     0.08400
H2916       H  0.68086657  0.97775278  0.24815386     0.12000
H2917       H  0.83401702  0.02887227  0.24032935     0.11900
H2918       H  0.84490554  0.99191373  0.25037130     0.11700
H2919       H  0.81821811  0.95051170  0.26116095     0.12200
H2920       H  0.69277214  0.94355739  0.25842155     0.14200
C2921       C  0.68780376  0.83189652  0.34715091    -0.05800
C2922       C  0.72830075  0.84339849  0.34396053    -0.05800
C2923       C  0.73137625  0.84060307  0.33674450    -0.23900
C2924       C  0.69394532  0.82578923  0.33253589     0.18300
C2925       C  0.65302556  0.81409655  0.33562853     0.15500
C2926       C  0.65022207  0.81742630  0.34290131    -0.19000
C2927       C  0.61556937  0.79889384  0.33138893    -0.20800
C2928       C  0.61869844  0.79571859  0.32415842    -0.13400
C2929       C  0.65930017  0.80739800  0.32101222     0.03300
C2930       C  0.69682313  0.82238338  0.32528771    -0.25500
H2931       H  0.75774096  0.85417613  0.34705351     0.08400
H2932       H  0.76302725  0.84960000  0.33446112     0.12000
H2933       H  0.61858010  0.80774683  0.34525163     0.11900
H2934       H  0.58382923  0.78957867  0.33366348     0.11700
H2935       H  0.58929668  0.78418894  0.32102732     0.12200
H2936       H  0.72856988  0.83202120  0.32297713     0.14200
C2937       C  0.85016752  0.80940415  0.37934110    -0.05800
C2938       C  0.86244359  0.79253668  0.38497876    -0.05800
C2939       C  0.90353308  0.79560228  0.38514764    -0.23900
C2940       C  0.93343121  0.81580064  0.37970135     0.18300
C2941       C  0.92230133  0.83362226  0.37402512     0.15500
C2942       C  0.88052093  0.83015467  0.37385586    -0.19000
C2943       C  0.95325104  0.85449002  0.36866528    -0.20800
C2944       C  0.99453241  0.85702694  0.36891601    -0.13400
C2945       C  0.00529206  0.83847905  0.37451062     0.03300
C2946       C  0.97432110  0.81821887  0.37989100    -0.25500
H2947       H  0.84017861  0.77670599  0.38928527     0.08400
H2948       H  0.91192049  0.78206661  0.38955530     0.12000
H2949       H  0.87182925  0.84373893  0.36949066     0.11900
H2950       H  0.94549571  0.86870374  0.36428121     0.11700
H2951       H  0.01775182  0.87308584  0.36472783     0.12200
H2952       H  0.98182864  0.80402740  0.38431051     0.14200
C2953       C  0.35891312  0.82515944  0.38289170    -0.05800
C2954       C  0.36762064  0.81159989  0.38928830    -0.05800
C2955       C  0.40198688  0.80233285  0.38991183    -0.23900
C2956       C  0.42768431  0.80542847  0.38410895     0.18300
C2957       C  0.41872791  0.81862898  0.37766126     0.15500
C2958       C  0.38505226  0.82899622  0.37711872    -0.19000
C2959       C  0.44310443  0.82062783  0.37179423    -0.20800
C2960       C  0.47637120  0.81015310  0.37227919    -0.13400
C2961       C  0.48684889  0.79802480  0.37867336     0.03300
C2962       C  0.46197291  0.79546523  0.38460167    -0.25500
H2963       H  0.34781670  0.80816721  0.39382419     0.08400
H2964       H  0.40804664  0.79217988  0.39490430     0.12000
H2965       H  0.37828939  0.83868636  0.37213243     0.11900
H2966       H  0.43643984  0.83029507  0.36680219     0.11700
H2967       H  0.49443961  0.81230354  0.36758666     0.12200
H2968       H  0.46955972  0.78637675  0.38957088     0.14200
C2969       C  0.50997710  0.83237497  0.28723291    -0.05800
C2970       C  0.49857482  0.85060336  0.28167440    -0.05800
C2971       C  0.45888681  0.85081120  0.28175001    -0.23900
C2972       C  0.42985717  0.83276920  0.28738067     0.18300
C2973       C  0.44051112  0.81392056  0.29296579     0.15500
C2974       C  0.48040215  0.81372558  0.29284947    -0.19000
C2975       C  0.41113495  0.79576581  0.29857618    -0.20800
C2976       C  0.37134232  0.79611038  0.29862879    -0.13400
C2977       C  0.36050171  0.81487527  0.29308908     0.03300
C2978       C  0.39027596  0.83325294  0.28749084    -0.25500
H2979       H  0.52049479  0.86509952  0.27728605     0.08400
H2980       H  0.45098990  0.86529108  0.27741583     0.12000
H2981       H  0.48846693  0.79934760  0.29717585     0.11900
H2982       H  0.41888996  0.78120253  0.30291199     0.11700
H2983       H  0.34914163  0.78174094  0.30298767     0.12200
H2984       H  0.38260363  0.84770550  0.28312590     0.14200
C2985       C  0.86972470  0.84081011  0.29148333    -0.05800
C2986       C  0.87961634  0.82707603  0.29776597    -0.05800
C2987       C  0.91510478  0.81982214  0.29822968    -0.23900
C2988       C  0.94153335  0.82601430  0.29241805     0.18300
C2989       C  0.93259477  0.84054441  0.28609761     0.15500
C2990       C  0.89683415  0.84803040  0.28566934    -0.19000
C2991       C  0.95941770  0.84698416  0.28030598    -0.20800
C2992       C  0.99473479  0.83924853  0.28077997    -0.13400
C2993       C  0.00362413  0.82448688  0.28703008     0.03300
C2994       C  0.97673687  0.81786068  0.29283535    -0.25500
H2995       H  0.85967213  0.82159540  0.30236304     0.08400
H2996       H  0.92163541  0.80900584  0.30312674     0.12000
H2997       H  0.88966630  0.85857046  0.28079720     0.11900
H2998       H  0.95315065  0.85806616  0.27541530     0.11700
H2999       H  0.01502974  0.84461608  0.27623074     0.12200
H3000       H  0.98363511  0.80708027  0.29770993     0.14200
C3001       C  0.18946878  0.81336566  0.32182851    -0.05800
C3002       C  0.18806504  0.77746311  0.32531920    -0.05800
C3003       C  0.17606417  0.76970175  0.33232519    -0.23900
C3004       C  0.16464816  0.79731821  0.33597559     0.18300
C3005       C  0.16554955  0.83330556  0.33254153     0.15500
C3006       C  0.17834069  0.84136835  0.32552610    -0.19000
C3007       C  0.15352000  0.86052150  0.33618322    -0.20800
C3008       C  0.14232545  0.85314013  0.34323036    -0.13400
C3009       C  0.14314090  0.81850362  0.34679353     0.03300
C3010       C  0.15323659  0.78999816  0.34304007    -0.25500
H3011       H  0.19587687  0.75500470  0.32261924     0.08400
H3012       H  0.17545985  0.74188478  0.33487937     0.12000
H3013       H  0.17871781  0.86894220  0.32292176     0.11900
H3014       H  0.15368505  0.88810592  0.33362224     0.11700
H3015       H  0.13491230  0.87581425  0.34595534     0.12200
H3016       H  0.15429338  0.76325756  0.34567869     0.14200
C3017       C  0.07556649  0.75270607  0.26184978    -0.05800
C3018       C  0.05948109  0.70853593  0.25974201    -0.05800
C3019       C  0.03793521  0.69297147  0.25339834    -0.23900
C3020       C  0.03163773  0.72107472  0.24902611     0.18300
C3021       C  0.04634522  0.76507925  0.25117396     0.15500
C3022       C  0.06828613  0.78068879  0.25755740    -0.19000
C3023       C  0.03911051  0.79286239  0.24687595    -0.20800
C3024       C  0.01806286  0.77748305  0.24048976    -0.13400
C3025       C  0.00403525  0.73400922  0.23821036     0.03300
C3026       C  0.01088739  0.70588360  0.24254740    -0.25500
H3027       H  0.06388365  0.68579586  0.26297445     0.08400
H3028       H  0.02645324  0.65901562  0.25189899     0.12000
H3029       H  0.08021714  0.81464562  0.25911739     0.11900
H3030       H  0.04978583  0.82654317  0.24844270     0.11700
H3031       H  0.01306090  0.80004211  0.23731289     0.12200
H3032       H  0.99993188  0.67224022  0.24091465     0.14200
C3033       C  0.96335757  0.13534545  0.37950921    -0.05800
C3034       C  0.93047776  0.12653016  0.38445062    -0.05800
C3035       C  0.89076432  0.08668602  0.38430083    -0.23900
C3036       C  0.88322691  0.05465556  0.37924301     0.18300
C3037       C  0.91574862  0.06268999  0.37423374     0.15500
C3038       C  0.95558686  0.10317569  0.37436411    -0.19000
C3039       C  0.90789375  0.02984613  0.36926086    -0.20800
C3040       C  0.86837643  0.98916174  0.36934173    -0.13400
C3041       C  0.83597176  0.98093907  0.37435390     0.03300
C3042       C  0.84376774  0.01440961  0.37922191    -0.25500
H3043       H  0.93533114  0.15054757  0.38843761     0.08400
H3044       H  0.86600659  0.08078720  0.38818509     0.12000
H3045       H  0.98064404  0.10931221  0.37052249     0.11900
H3046       H  0.93253068  0.03538896  0.36537663     0.11700
H3047       H  0.86343490  0.96407099  0.36555205     0.12200
H3048       H  0.81943959  0.00900557  0.38315973     0.14200
C3049       C  0.32365144  0.49172518  0.37928634    -0.05800
C3050       C  0.34645444  0.50236181  0.37289826    -0.05800
C3051       C  0.39024965  0.53576200  0.37246200    -0.23900
C3052       C  0.41254188  0.55965736  0.37839250     0.18300
C3053       C  0.39016102  0.55023138  0.38483926     0.15500
C3054       C  0.34572296  0.51635317  0.38525387    -0.19000
C3055       C  0.41282868  0.57479437  0.39074242    -0.20800
C3056       C  0.45672684  0.60876705  0.39021804    -0.13400
C3057       C  0.47903585  0.61841033  0.38380564     0.03300
C3058       C  0.45676767  0.59318370  0.37793359    -0.25500
H3059       H  0.33060472  0.48436787  0.36818234     0.08400
H3060       H  0.40677348  0.54270582  0.36747397     0.12000
H3061       H  0.32881602  0.50856885  0.39021355     0.11900
H3062       H  0.39648638  0.56812431  0.39574184     0.11700
H3063       H  0.47321082  0.62777934  0.39482901     0.12200
H3064       H  0.47337946  0.60068043  0.37294590     0.14200
C3065       C  0.15286820  0.14395541  0.37404217    -0.05800
C3066       C  0.12168366  0.10800728  0.37007526    -0.05800
C3067       C  0.12353100  0.06893533  0.36965419    -0.23900
C3068       C  0.15638492  0.06515821  0.37323404     0.18300
C3069       C  0.18832854  0.10149699  0.37710070     0.15500
C3070       C  0.18667565  0.14053730  0.37740232    -0.19000
C3071       C  0.22079432  0.09794250  0.38079475    -0.20800
C3072       C  0.22095092  0.05820488  0.38083826    -0.13400
C3073       C  0.18912428  0.02154991  0.37709241     0.03300
C3074       C  0.15731314  0.02547419  0.37317938    -0.25500
H3075       H  0.09526284  0.10966165  0.36745342     0.08400
H3076       H  0.09870897  0.04136689  0.36666503     0.12000
H3077       H  0.21130185  0.16797424  0.38044446     0.11900
H3078       H  0.24554694  0.12564619  0.38377191     0.11700
H3079       H  0.24596334  0.05609419  0.38382814     0.12200
H3080       H  0.13243856  0.99728577  0.37029745     0.14200
C3081       C  0.15410356  0.50429215  0.38396019    -0.05800
C3082       C  0.17390451  0.53051608  0.38990118    -0.05800
C3083       C  0.18372889  0.57455271  0.39016790    -0.23900
C3084       C  0.17435066  0.59335831  0.38446992     0.18300
C3085       C  0.15396894  0.56694464  0.37852547     0.15500
C3086       C  0.14367343  0.52273878  0.37833107    -0.19000
C3087       C  0.14463428  0.58522093  0.37280167    -0.20800
C3088       C  0.15511839  0.62917216  0.37294025    -0.13400
C3089       C  0.17512055  0.65620757  0.37882263     0.03300
C3090       C  0.18488433  0.63794044  0.38459131    -0.25500
H3091       H  0.18218577  0.51707943  0.39432840     0.08400
H3092       H  0.19914172  0.59401675  0.39479329     0.12000
H3093       H  0.12880002  0.50313040  0.37368914     0.11900
H3094       H  0.12909137  0.56547685  0.36820122     0.11700
H3095       H  0.14690861  0.64175714  0.36839830     0.12200
H3096       H  0.20008220  0.65805700  0.38917126     0.14200
C3097       C  0.86799647  0.03153112  0.28920729    -0.05800
C3098       C  0.87633429  0.06149748  0.29469040    -0.05800
C3099       C  0.91752928  0.09913220  0.29542027    -0.23900
C3100       C  0.95111520  0.10739029  0.29069125     0.18300
C3101       C  0.94285073  0.07815603  0.28505494     0.15500
C3102       C  0.90125101  0.04055790  0.28431791    -0.19000
C3103       C  0.97666018  0.08645626  0.28035400    -0.20800
C3104       C  0.01851918  0.12309202  0.28129179    -0.13400
C3105       C  0.02715933  0.15200724  0.28694005     0.03300
C3106       C  0.99304552  0.14405503  0.29158757    -0.25500
H3107       H  0.85140077  0.05527586  0.29855307     0.08400
H3108       H  0.92337221  0.12127927  0.29976475     0.12000
H3109       H  0.89520558  0.01782930  0.28004852     0.11900
H3110       H  0.97088468  0.06436686  0.27600507     0.11700
H3111       H  0.04421103  0.12851360  0.27762742     0.12200
H3112       H  0.99906209  0.16621313  0.29594141     0.14200
C3113       C  0.37700984  0.51138695  0.29287892    -0.05800
C3114       C  0.38349257  0.53725954  0.29889104    -0.05800
C3115       C  0.42099459  0.57903723  0.29961828    -0.23900
C3116       C  0.45293454  0.59576842  0.29436569     0.18300
C3117       C  0.44657175  0.57000231  0.28831677     0.15500
C3118       C  0.40878903  0.52834808  0.28759678    -0.19000
C3119       C  0.47820768  0.58610363  0.28306135    -0.20800
C3120       C  0.51593303  0.62720187  0.28376740    -0.13400
C3121       C  0.52301627  0.65357265  0.28973187     0.03300
C3122       C  0.49110007  0.63761088  0.29503610    -0.25500
H3123       H  0.35946021  0.52530835  0.30304602     0.08400
H3124       H  0.42504680  0.59814993  0.30429406     0.12000
H3125       H  0.40439820  0.50900828  0.28293195     0.11900
H3126       H  0.47384575  0.56685250  0.27838954     0.11700
H3127       H  0.53950476  0.63844207  0.27954771     0.12200
H3128       H  0.49600496  0.65742090  0.29966123     0.14200
C3129       C  0.21067382  0.14628938  0.28503071    -0.05800
C3130       C  0.18310397  0.11710643  0.27982222    -0.05800
C3131       C  0.17610426  0.07419498  0.27930837    -0.23900
C3132       C  0.19644648  0.05951770  0.28399781     0.18300
C3133       C  0.22561990  0.08913581  0.28906356     0.15500
C3134       C  0.23279900  0.13227032  0.28951592    -0.19000
C3135       C  0.24609585  0.07474762  0.29375430    -0.20800
C3136       C  0.23662703  0.03106011  0.29359981    -0.13400
C3137       C  0.20652078  0.00066503  0.28873600     0.03300
C3138       C  0.18720201  0.01548264  0.28383684    -0.25500
H3139       H  0.16583076  0.12696104  0.27624778     0.08400
H3140       H  0.15389413  0.05215802  0.27535442     0.12000
H3141       H  0.25439760  0.15431543  0.29353051     0.11900
H3142       H  0.26876769  0.09703580  0.29764302     0.11700
H3143       H  0.25260022  0.02099280  0.29739449     0.12200
H3144       H  0.16408895  0.99259735  0.28004902     0.14200
C3145       C  0.19244047  0.49686662  0.29552174    -0.05800
C3146       C  0.21576966  0.52815791  0.30076124    -0.05800
C3147       C  0.21515997  0.56794513  0.30106996    -0.23900
C3148       C  0.19186336  0.57738619  0.29607269     0.18300
C3149       C  0.16843607  0.54610280  0.29080419     0.15500
C3150       C  0.16841827  0.50618438  0.29062069    -0.19000
C3151       C  0.14612609  0.55549555  0.28566890    -0.20800
C3152       C  0.14756666  0.59598101  0.28565621    -0.13400
C3153       C  0.17079378  0.62770015  0.29083960     0.03300
C3154       C  0.19239702  0.61785667  0.29612100    -0.25500
H3155       H  0.23476161  0.52208674  0.30457451     0.08400
H3156       H  0.23354493  0.59164535  0.30513494     0.12000
H3157       H  0.15034545  0.48278440  0.28649986     0.11900
H3158       H  0.12814364  0.53178588  0.28158137     0.11700
H3159       H  0.13052995  0.60247330  0.28154784     0.12200
H3160       H  0.21063378  0.64204886  0.30013790     0.14200
C3161       C  0.16189955  0.28899002  0.34811997    -0.05800
C3162       C  0.13184295  0.25087144  0.34442209    -0.05800
C3163       C  0.13033061  0.25101674  0.33713379    -0.23900
C3164       C  0.15845573  0.28944641  0.33340911     0.18300
C3165       C  0.18893001  0.32770297  0.33707806     0.15500
C3166       C  0.19063285  0.32715581  0.34435647    -0.19000
C3167       C  0.21692817  0.36627736  0.33342555    -0.20800
C3168       C  0.21482972  0.36716496  0.32618844    -0.13400
C3169       C  0.18461428  0.32952201  0.32242036     0.03300
C3170       C  0.15649757  0.29052520  0.32610063    -0.25500
H3171       H  0.10903719  0.22112425  0.34716343     0.08400
H3172       H  0.10670065  0.22129094  0.33441905     0.12000
H3173       H  0.21362190  0.35712129  0.34709096     0.11900
H3174       H  0.24048153  0.39590312  0.33617212     0.11700
H3175       H  0.23708031  0.39753608  0.32354541     0.12200
H3176       H  0.13324262  0.26100549  0.32329770     0.14200
C3177       C  0.25897429  0.29253865  0.26049616    -0.05800
C3178       C  0.22721333  0.25399887  0.25704320    -0.05800
C3179       C  0.23601308  0.24180384  0.25059529    -0.23900
C3180       C  0.27695325  0.26756202  0.24743781     0.18300
C3181       C  0.30892562  0.30702975  0.25069251     0.15500
C3182       C  0.29960768  0.31959405  0.25718033    -0.19000
C3183       C  0.35003053  0.33238366  0.24748488    -0.20800
C3184       C  0.35972000  0.31799002  0.24125916    -0.13400
C3185       C  0.32833043  0.27813824  0.23807656     0.03300
C3186       C  0.28665424  0.25363801  0.24116549    -0.25500
H3187       H  0.19539716  0.23258697  0.25936836     0.08400
H3188       H  0.21104662  0.21158607  0.24815117     0.12000
H3189       H  0.32438301  0.34945816  0.25972965     0.11900
H3190       H  0.37500340  0.36285187  0.24986092     0.11700
H3191       H  0.39205915  0.33784717  0.23899051     0.12200
H3192       H  0.26189782  0.22304953  0.23878191     0.14200
C3193       C  0.01789733  0.38814796  0.43032387    -0.05800
C3194       C  0.98545946  0.35148229  0.42660904    -0.05800
C3195       C  0.99597006  0.33709418  0.42044681    -0.23900
C3196       C  0.03919301  0.35898908  0.41784553     0.18300
C3197       C  0.07199316  0.39600533  0.42149045     0.15500
C3198       C  0.06122984  0.41029607  0.42766740    -0.19000
C3199       C  0.11513782  0.41820210  0.41890058    -0.20800
C3200       C  0.12577180  0.40408535  0.41274933    -0.13400
C3201       C  0.09364529  0.36721438  0.40903597     0.03300
C3202       C  0.05019875  0.34468143  0.41166430    -0.25500
H3203       H  0.95184566  0.33373763  0.42847259     0.08400
H3204       H  0.97024306  0.30872427  0.41772154     0.12000
H3205       H  0.08682989  0.43869156  0.43041139     0.11900
H3206       H  0.14074625  0.44667471  0.42162570     0.11700
H3207       H  0.15940461  0.42217301  0.41090004     0.12200
H3208       H  0.02481752  0.31645974  0.40885887     0.14200
C3209       C  0.96311546  0.45611735  0.51479763    -0.05800
C3210       C  0.93669746  0.41592460  0.51128310    -0.05800
C3211       C  0.92861149  0.41514530  0.50413850    -0.23900
C3212       C  0.94624151  0.45461214  0.50036768     0.18300
C3213       C  0.97302718  0.49518716  0.50382860     0.15500
C3214       C  0.98157512  0.49566454  0.51099014    -0.19000
C3215       C  0.99083473  0.53464723  0.50006214    -0.20800
C3216       C  0.98349590  0.53388432  0.49289624    -0.13400
C3217       C  0.95748884  0.49374526  0.48935438     0.03300
C3218       C  0.93823325  0.45417237  0.49317851    -0.25500
H3219       H  0.92189260  0.38501545  0.51408412     0.08400
H3220       H  0.90819075  0.38367288  0.50157652     0.12000
H3221       H  0.00145055  0.52695373  0.51364047     0.11900
H3222       H  0.01132861  0.56608596  0.50262853     0.11700
H3223       H  0.99913361  0.56471879  0.49007412     0.12200
H3224       H  0.91895177  0.42287610  0.49049959     0.14200
C3225       C  0.27527210  0.78991388  0.45797691    -0.05800
C3226       C  0.23881924  0.78446432  0.46182476    -0.05800
C3227       C  0.20129788  0.74297742  0.46243638    -0.23900
C3228       C  0.19957765  0.70604287  0.45924954     0.18300
C3229       C  0.23575351  0.71085087  0.45532405     0.15500
C3230       C  0.27337569  0.75283283  0.45468700    -0.19000
C3231       C  0.23360942  0.67352772  0.45214839    -0.20800
C3232       C  0.19573794  0.63193091  0.45281240    -0.13400
C3233       C  0.15970622  0.62698839  0.45673480     0.03300
C3234       C  0.16210946  0.66438046  0.45994367    -0.25500
H3235       H  0.23935342  0.81233193  0.46440246     0.08400
H3236       H  0.17370201  0.73973107  0.46545064     0.12000
H3237       H  0.30142895  0.75640848  0.45176376     0.11900
H3238       H  0.26110704  0.67653791  0.44913492     0.11700
H3239       H  0.19470618  0.60366049  0.45029325     0.12200
H3240       H  0.13442134  0.66129248  0.46291891     0.14200
C3241       C  0.79261809  0.28421483  0.46159630    -0.05800
C3242       C  0.76396854  0.28328616  0.46684436    -0.05800
C3243       C  0.72312558  0.24543989  0.46798596    -0.23900
C3244       C  0.70997144  0.20750140  0.46392786     0.18300
C3245       C  0.73896873  0.20779778  0.45876469     0.15500
C3246       C  0.77983355  0.24596420  0.45761691    -0.19000
C3247       C  0.72645980  0.17006734  0.45473915    -0.20800
C3248       C  0.68524915  0.13286509  0.45564188    -0.13400
C3249       C  0.65502098  0.13228594  0.46056315     0.03300
C3250       C  0.66808322  0.16969100  0.46481620    -0.25500
H3251       H  0.77272373  0.31216962  0.47002031     0.08400
H3252       H  0.70165023  0.24606439  0.47198779     0.12000
H3253       H  0.80151613  0.24589624  0.45359664     0.11900
H3254       H  0.74829945  0.16950010  0.45079732     0.11700
H3255       H  0.67679248  0.10467845  0.45230672     0.12200
H3256       H  0.64542254  0.16992244  0.46863410     0.14200
C3257       C  0.27693256  0.89336373  0.40781715    -0.05800
C3258       C  0.27550788  0.92740731  0.41155542    -0.05800
C3259       C  0.29781961  0.94281357  0.41786103    -0.23900
C3260       C  0.32222043  0.92466070  0.42056504     0.18300
C3261       C  0.32367169  0.89022231  0.41688955     0.15500
C3262       C  0.30092133  0.87467389  0.41056405    -0.19000
C3263       C  0.34795562  0.87194855  0.41959758    -0.20800
C3264       C  0.36980649  0.88695409  0.42594054    -0.13400
C3265       C  0.36816470  0.92079064  0.42968783     0.03300
C3266       C  0.34480320  0.94003693  0.42691184    -0.25500
H3267       H  0.25716801  0.94239853  0.40959048     0.08400
H3268       H  0.29610814  0.96905103  0.42060605     0.12000
H3269       H  0.30260226  0.84868291  0.40772868     0.11900
H3270       H  0.34968918  0.84573351  0.41684938     0.11700
H3271       H  0.38788697  0.87178925  0.42794858     0.12200
H3272       H  0.34307474  0.96589745  0.42978125     0.14200
C3273       C  0.44981497  0.98384689  0.51442794    -0.05800
C3274       C  0.43864779  0.01051868  0.51047033    -0.05800
C3275       C  0.45093704  0.01921492  0.50349804    -0.23900
C3276       C  0.47507924  0.00182107  0.50035715     0.18300
C3277       C  0.48626836  0.97468273  0.50424398     0.15500
C3278       C  0.47333102  0.96562804  0.51124327    -0.19000
C3279       C  0.51010571  0.95702667  0.50104745    -0.20800
C3280       C  0.52116758  0.96474507  0.49399651    -0.13400
C3281       C  0.50939822  0.99101165  0.49005767     0.03300
C3282       C  0.48725277  0.01030768  0.49334271    -0.25500
H3283       H  0.42079816  0.02518034  0.51279837     0.08400
H3284       H  0.44186274  0.03986429  0.50057814     0.12000
H3285       H  0.48272378  0.94555486  0.51425746     0.11900
H3286       H  0.51907437  0.93622438  0.50394482     0.11700
H3287       H  0.53761230  0.94894768  0.49155780     0.12200
H3288       H  0.47694059  0.02966830  0.49033240     0.14200
C3289       C  0.27541753  0.81845059  0.54072539    -0.05800
C3290       C  0.23803016  0.82150553  0.54249107    -0.05800
C3291       C  0.19682814  0.78376318  0.54323331    -0.23900
C3292       C  0.19190960  0.74193155  0.54220866     0.18300
C3293       C  0.22844352  0.73830137  0.53995096     0.15500
C3294       C  0.27009543  0.77667745  0.53919624    -0.19000
C3295       C  0.22284283  0.69621915  0.53873197    -0.20800
C3296       C  0.18190413  0.65834691  0.53987787    -0.13400
C3297       C  0.14606134  0.66171655  0.54242744     0.03300
C3298       C  0.15124314  0.70372086  0.54353238    -0.25500
H3299       H  0.24108378  0.85329748  0.54362067     0.08400
H3300       H  0.16910155  0.78728198  0.54483593     0.12000
H3301       H  0.29860681  0.77382009  0.53785921     0.11900
H3302       H  0.25016979  0.69256379  0.53694664     0.11700
H3303       H  0.17842961  0.62622137  0.53890873     0.12200
H3304       H  0.12350385  0.70660637  0.54535154     0.14200
C3305       C  0.64107697  0.17111905  0.55146237    -0.05800
C3306       C  0.63743198  0.20540603  0.55468984    -0.05800
C3307       C  0.67419388  0.24752524  0.55544301    -0.23900
C3308       C  0.71536650  0.25620930  0.55299313     0.18300
C3309       C  0.71956506  0.22153408  0.54994717     0.15500
C3310       C  0.68253548  0.17934236  0.54920606    -0.19000
C3311       C  0.76050439  0.22990355  0.54748359    -0.20800
C3312       C  0.79637860  0.27261925  0.54767460    -0.13400
C3313       C  0.79227172  0.30788578  0.55038401     0.03300
C3314       C  0.75197104  0.29923165  0.55327224    -0.25500
H3315       H  0.60583813  0.20000765  0.55648614     0.08400
H3316       H  0.67020461  0.27350633  0.55780222     0.12000
H3317       H  0.68590394  0.15313427  0.54677802     0.11900
H3318       H  0.76447985  0.20371370  0.54520131     0.11700
H3319       H  0.82731635  0.27833748  0.54550295     0.12200
H3320       H  0.74845863  0.32616952  0.55535312     0.14200
C3321       C  0.81573982  0.49443161  0.45891196    -0.05800
C3322       C  0.81776101  0.52828544  0.45469502    -0.05800
C3323       C  0.78093086  0.53307638  0.45374047    -0.23900
C3324       C  0.74105108  0.50412825  0.45697294     0.18300
C3325       C  0.73888827  0.47088980  0.46140037     0.15500
C3326       C  0.77624494  0.46640075  0.46238367    -0.19000
C3327       C  0.69905296  0.44198484  0.46464325    -0.20800
C3328       C  0.66177254  0.44569264  0.46348891    -0.13400
C3329       C  0.66320341  0.47828302  0.45903185     0.03300
C3330       C  0.70323302  0.50754380  0.45578898    -0.25500
H3331       H  0.84778219  0.55071701  0.45197927     0.08400
H3332       H  0.78346956  0.55894749  0.45036706     0.12000
H3333       H  0.77402291  0.44006561  0.46561095     0.11900
H3334       H  0.69658602  0.41623103  0.46803719     0.11700
H3335       H  0.63146050  0.42239320  0.46604753     0.12200
H3336       H  0.70501130  0.53293093  0.45237587     0.14200
C3337       C  0.31128163  0.48726637  0.45526423    -0.05800
C3338       C  0.30287669  0.51178206  0.45036590    -0.05800
C3339       C  0.26080326  0.50658861  0.44977333    -0.23900
C3340       C  0.22641415  0.47676660  0.45406178     0.18300
C3341       C  0.23440767  0.45187350  0.45898583     0.15500
C3342       C  0.27663367  0.45729417  0.45955943    -0.19000
C3343       C  0.20010228  0.42214295  0.46328955    -0.20800
C3344       C  0.15837701  0.41785428  0.46283429    -0.13400
C3345       C  0.15011984  0.44296544  0.45802645     0.03300
C3346       C  0.18435339  0.47192837  0.45357782    -0.25500
H3347       H  0.32879544  0.53496250  0.44698665     0.08400
H3348       H  0.25518430  0.52597739  0.44597143     0.12000
H3349       H  0.28229315  0.43777559  0.46333460     0.11900
H3350       H  0.20570126  0.40265695  0.46707633     0.11700
H3351       H  0.13273985  0.39525837  0.46630950     0.12200
H3352       H  0.17871521  0.49165895  0.44984289     0.14200
C3353       C  0.46740472  0.29424341  0.45639444    -0.05800
C3354       C  0.44079888  0.26381549  0.45122571    -0.05800
C3355       C  0.43727630  0.22245973  0.45065471    -0.23900
C3356       C  0.45996501  0.21023263  0.45527089     0.18300
C3357       C  0.48628388  0.24003666  0.46056279     0.15500
C3358       C  0.48996054  0.28192826  0.46109134    -0.19000
C3359       C  0.50844615  0.22734048  0.46522779    -0.20800
C3360       C  0.50433511  0.18556413  0.46468787    -0.13400
C3361       C  0.47830470  0.15561113  0.45942553     0.03300
C3362       C  0.45644548  0.16852728  0.45469571    -0.25500
H3363       H  0.42267107  0.27200158  0.44754888     0.08400
H3364       H  0.41675035  0.20002436  0.44659208     0.12000
H3365       H  0.51068001  0.30496182  0.46508120     0.11900
H3366       H  0.52881237  0.24962101  0.46931735     0.11700
H3367       H  0.52186047  0.17684521  0.46839732     0.12200
H3368       H  0.43624167  0.14598340  0.45061682     0.14200
C3369       C  0.48809539  0.66589414  0.45813892    -0.05800
C3370       C  0.51635344  0.69936018  0.46277913    -0.05800
C3371       C  0.51034717  0.73495029  0.46425016    -0.23900
C3372       C  0.47605077  0.73789330  0.46109880     0.18300
C3373       C  0.44735907  0.70461762  0.45641417     0.15500
C3374       C  0.45361202  0.66881245  0.45494424    -0.19000
C3375       C  0.41320465  0.70802239  0.45325313    -0.20800
C3376       C  0.40891170  0.74511449  0.45447846    -0.13400
C3377       C  0.43834626  0.77901474  0.45895888     0.03300
C3378       C  0.47093662  0.77437310  0.46241747    -0.25500
H3379       H  0.54307319  0.69793037  0.46534091     0.08400
H3380       H  0.53264054  0.76025559  0.46784176     0.12000
H3381       H  0.43126887  0.64300392  0.45142062     0.11900
H3382       H  0.39061935  0.68266011  0.44969644     0.11700
H3383       H  0.38331697  0.74784335  0.45177745     0.12200
H3384       H  0.49400277  0.80034787  0.46585138     0.14200
C3385       C  0.54959110  0.59980582  0.42899258    -0.05800
C3386       C  0.51612198  0.60101284  0.42512826    -0.05800
C3387       C  0.52594365  0.62709040  0.41919954    -0.23900
C3388       C  0.56955425  0.65282694  0.41698159     0.18300
C3389       C  0.60359685  0.65156109  0.42072245     0.15500
C3390       C  0.59342510  0.62483313  0.42668347    -0.19000
C3391       C  0.64718376  0.67720405  0.41843769    -0.20800
C3392       C  0.65680525  0.70318581  0.41247281    -0.13400
C3393       C  0.62310304  0.70436479  0.40866359     0.03300
C3394       C  0.57948493  0.67936526  0.41103533    -0.25500
H3395       H  0.48200867  0.58176343  0.42671149     0.08400
H3396       H  0.49936063  0.62728817  0.41636910     0.12000
H3397       H  0.61958060  0.62434027  0.42960014     0.11900
H3398       H  0.67382353  0.67684293  0.42122126     0.11700
H3399       H  0.69076714  0.72198721  0.41079393     0.12200
H3400       H  0.55303890  0.67952748  0.40815334     0.14200
C3401       C  0.27993001  0.48160982  0.53926415    -0.05800
C3402       C  0.27532116  0.50857412  0.53432030    -0.05800
C3403       C  0.23623982  0.51002912  0.53386130    -0.23900
C3404       C  0.20078640  0.48412426  0.53827641     0.18300
C3405       C  0.20450914  0.45549455  0.54303887     0.15500
C3406       C  0.24396435  0.45463434  0.54353613    -0.19000
C3407       C  0.16899403  0.42872288  0.54734222    -0.20800
C3408       C  0.13082804  0.43159122  0.54716822    -0.13400
C3409       C  0.12725530  0.46154232  0.54272018     0.03300
C3410       C  0.16215311  0.48705684  0.53814323    -0.25500
H3411       H  0.30244010  0.52960561  0.53093533     0.08400
H3412       H  0.23401847  0.53191607  0.53013030     0.12000
H3413       H  0.24678004  0.43324773  0.54730481     0.11900
H3414       H  0.17102088  0.40613109  0.55095086     0.11700
H3415       H  0.10437154  0.41088780  0.55068123     0.12200
H3416       H  0.15991952  0.51013279  0.53466733     0.14200
C3417       C  0.78363810  0.49465015  0.54953002    -0.05800
C3418       C  0.75136074  0.46567731  0.55423448    -0.05800
C3419       C  0.71019302  0.46275748  0.55457168    -0.23900
C3420       C  0.70036567  0.48838109  0.55016145     0.18300
C3421       C  0.73280655  0.51791743  0.54548631     0.15500
C3422       C  0.77418283  0.52115054  0.54524614    -0.19000
C3423       C  0.72301902  0.54293423  0.54096696    -0.20800
C3424       C  0.68101165  0.53770944  0.54089660    -0.13400
C3425       C  0.64795260  0.50769121  0.54540102     0.03300
C3426       C  0.65826611  0.48391607  0.55016753    -0.25500
H3427       H  0.75761057  0.44467407  0.55759254     0.08400
H3428       H  0.68577082  0.43980685  0.55817349     0.12000
H3429       H  0.79866182  0.54368343  0.54160598     0.11900
H3430       H  0.74752465  0.56576948  0.53736158     0.11700
H3431       H  0.67427969  0.55686462  0.53720840     0.12200
H3432       H  0.63316785  0.46068832  0.55366140     0.14200
C3433       C  0.46377138  0.66861738  0.53788952    -0.05800
C3434       C  0.44117235  0.67673360  0.53260095    -0.05800
C3435       C  0.43786676  0.71513609  0.53278543    -0.23900
C3436       C  0.45665611  0.74560626  0.53830007     0.18300
C3437       C  0.47982156  0.73776154  0.54355595     0.15500
C3438       C  0.48364037  0.70004108  0.54326759    -0.19000
C3439       C  0.49826142  0.76725923  0.54913887    -0.20800
C3440       C  0.49351025  0.80431192  0.54958192    -0.13400
C3441       C  0.47050297  0.81285414  0.54442264     0.03300
C3442       C  0.45234150  0.78341162  0.53873740    -0.25500
H3443       H  0.42547447  0.65315861  0.52841088     0.08400
H3444       H  0.41997047  0.72059706  0.52869411     0.12000
H3445       H  0.50132092  0.69476522  0.54742135     0.11900
H3446       H  0.51609961  0.76148100  0.55320657     0.11700
H3447       H  0.50813538  0.82643029  0.55397669     0.12200
H3448       H  0.43444395  0.78952508  0.53472213     0.14200
C3449       C  0.46583097  0.31097825  0.54809565    -0.05800
C3450       C  0.49682378  0.31185305  0.55283870    -0.05800
C3451       C  0.50047637  0.27431915  0.55390573    -0.23900
C3452       C  0.47307144  0.23514723  0.55027760     0.18300
C3453       C  0.44117679  0.23380283  0.54563081     0.15500
C3454       C  0.43780540  0.27151653  0.54456761    -0.19000
C3455       C  0.41344494  0.19490720  0.54202024    -0.20800
C3456       C  0.41807293  0.15800467  0.54282101    -0.13400
C3457       C  0.45066213  0.15911628  0.54723172     0.03300
C3458       C  0.47755351  0.19763092  0.55108188    -0.25500
H3459       H  0.51881716  0.34178823  0.55565810     0.08400
H3460       H  0.52503814  0.27609311  0.55750557     0.12000
H3461       H  0.41354327  0.27013170  0.54093367     0.11900
H3462       H  0.38861808  0.19320426  0.53848267     0.11700
H3463       H  0.39643986  0.12861860  0.53984968     0.12200
H3464       H  0.50283312  0.19894687  0.55447359     0.14200
C3465       C  0.44991370  0.42892255  0.48692572    -0.05800
C3466       C  0.40926120  0.41215539  0.49037802    -0.05800
C3467       C  0.40722857  0.42504695  0.49722324    -0.23900
C3468       C  0.44574318  0.45584284  0.50069728     0.18300
C3469       C  0.48681194  0.47198095  0.49733221     0.15500
C3470       C  0.48869369  0.45782111  0.49055055    -0.19000
C3471       C  0.52534951  0.50319281  0.50070994    -0.20800
C3472       C  0.52347176  0.51777061  0.50740191    -0.13400
C3473       C  0.48302483  0.50164474  0.51088634     0.03300
C3474       C  0.44402819  0.47091122  0.50744966    -0.25500
H3475       H  0.37884014  0.39051345  0.48766600     0.08400
H3476       H  0.37539957  0.41214264  0.49970424     0.12000
H3477       H  0.52016818  0.47202228  0.48790674     0.11900
H3478       H  0.55708287  0.51614034  0.49819413     0.11700
H3479       H  0.55402800  0.54113742  0.50992565     0.12200
H3480       H  0.41267434  0.45759085  0.51010613     0.14200
C3481       C  0.08381491  0.62973433  0.92542335    -0.05800
C3482       C  0.12546967  0.64003753  0.92279441    -0.05800
C3483       C  0.14133210  0.66293681  0.91656843    -0.23900
C3484       C  0.11619453  0.67655515  0.91280575     0.18300
C3485       C  0.07440058  0.66670225  0.91535784     0.15500
C3486       C  0.05831543  0.64316033  0.92162300    -0.19000
C3487       C  0.04960208  0.68092062  0.91161807    -0.20800
C3488       C  0.06609932  0.70487442  0.90547181    -0.13400
C3489       C  0.10772871  0.71501938  0.90286831     0.03300
C3490       C  0.13243334  0.70025815  0.90657460    -0.25500
H3491       H  0.14613315  0.63031008  0.92554647     0.08400
H3492       H  0.17346854  0.67021145  0.91471862     0.12000
H3493       H  0.02629731  0.63573926  0.92355674     0.11900
H3494       H  0.01751885  0.67379338  0.91346905     0.11700
H3495       H  0.04603157  0.71548157  0.90275212     0.12200
H3496       H  0.16454544  0.70771815  0.90467804     0.14200
C3497       C  0.18080800  0.84160131  0.84337098    -0.05800
C3498       C  0.21825159  0.85622796  0.83914852    -0.05800
C3499       C  0.21427037  0.84382779  0.83214852    -0.23900
C3500       C  0.17272561  0.81579770  0.82923732     0.18300
C3501       C  0.13466347  0.80103295  0.83339606     0.15500
C3502       C  0.13887401  0.81445047  0.84042328    -0.19000
C3503       C  0.09316713  0.77291070  0.83044903    -0.20800
C3504       C  0.08932381  0.76106086  0.82340024    -0.13400
C3505       C  0.12690058  0.77638069  0.81917173     0.03300
C3506       C  0.16865531  0.80300850  0.82220157    -0.25500
H3507       H  0.25084975  0.87673765  0.84131646     0.08400
H3508       H  0.24380479  0.85562442  0.82903803     0.12000
H3509       H  0.10980008  0.80222214  0.84366475     0.11900
H3510       H  0.06357653  0.76099964  0.83354804     0.11700
H3511       H  0.05677780  0.74110294  0.82118560     0.12200
H3512       H  0.19791232  0.81602731  0.81898692     0.14200
C3513       C  0.45524353  0.82037709  0.79420038    -0.05800
C3514       C  0.42232772  0.79577677  0.79910468    -0.05800
C3515       C  0.38211057  0.79532832  0.79897761    -0.23900
C3516       C  0.37387814  0.81906366  0.79389856     0.18300
C3517       C  0.40677414  0.84424745  0.78899604     0.15500
C3518       C  0.44713115  0.84507910  0.78921998    -0.19000
C3519       C  0.39846670  0.86742993  0.78384011    -0.20800
C3520       C  0.35752013  0.86506409  0.78346133    -0.13400
C3521       C  0.32420936  0.83980736  0.78827334     0.03300
C3522       C  0.33302947  0.81730744  0.79354572    -0.25500
H3523       H  0.42731757  0.77625331  0.80295589     0.08400
H3524       H  0.35710501  0.77572613  0.80277350     0.12000
H3525       H  0.47184092  0.86427308  0.78535811     0.11900
H3526       H  0.42345006  0.88690068  0.78003200     0.11700
H3527       H  0.35188229  0.88280929  0.77937043     0.12200
H3528       H  0.30782247  0.79754273  0.79730335     0.14200
C3529       C  0.80714336  0.80257906  0.78571954    -0.05800
C3530       C  0.83419632  0.82516678  0.78000673    -0.05800
C3531       C  0.87780885  0.83421262  0.77968978    -0.23900
C3532       C  0.89544792  0.82111641  0.78509532     0.18300
C3533       C  0.86833131  0.79775398  0.79078847     0.15500
C3534       C  0.82443129  0.78827114  0.79103246    -0.19000
C3535       C  0.88574287  0.78486485  0.79622697    -0.20800
C3536       C  0.92947753  0.79471105  0.79603117    -0.13400
C3537       C  0.95702246  0.81758370  0.79037366     0.03300
C3538       C  0.93964129  0.83096075  0.78491897    -0.25500
H3539       H  0.82192017  0.83662112  0.77581868     0.08400
H3540       H  0.89791599  0.85203023  0.77526489     0.12000
H3541       H  0.80424602  0.77103525  0.79548712     0.11900
H3542       H  0.86550721  0.76708565  0.80064522     0.11700
H3543       H  0.94154312  0.78384471  0.80032667     0.12200
H3544       H  0.96019660  0.84848628  0.78051423     0.14200
C3545       C  0.61466474  0.97212561  0.92592628    -0.05800
C3546       C  0.65439429  0.00418622  0.92286832    -0.05800
C3547       C  0.67015572  0.99451545  0.91679451    -0.23900
C3548       C  0.64638577  0.95268901  0.91366698     0.18300
C3549       C  0.60650991  0.92054233  0.91673609     0.15500
C3550       C  0.59109242  0.93034937  0.92279953    -0.19000
C3551       C  0.58221293  0.87886701  0.91369328    -0.20800
C3552       C  0.59684240  0.86895560  0.90761107    -0.13400
C3553       C  0.63636241  0.90036147  0.90442246     0.03300
C3554       C  0.66132968  0.94234797  0.90751883    -0.25500
H3555       H  0.67332083  0.03676222  0.92516280     0.08400
H3556       H  0.70076615  0.01972993  0.91453947     0.12000
H3557       H  0.56050530  0.90516570  0.92507590     0.11900
H3558       H  0.55163847  0.85389166  0.91599711     0.11700
H3559       H  0.57685121  0.83625294  0.90541479     0.12200
H3560       H  0.69175205  0.96692131  0.90512234     0.14200
C3561       C  0.49854623  0.83333019  0.87923912    -0.05800
C3562       C  0.47699225  0.82428924  0.88571459    -0.05800
C3563       C  0.43361008  0.81561165  0.88621315    -0.23900
C3564       C  0.41070803  0.81523221  0.88023151     0.18300
C3565       C  0.43194185  0.82348554  0.87368915     0.15500
C3566       C  0.47570254  0.83287151  0.87324072    -0.19000
C3567       C  0.40911237  0.82229248  0.86767992    -0.20800
C3568       C  0.36635502  0.81486197  0.86815147    -0.13400
C3569       C  0.34533004  0.80857904  0.87464290     0.03300
C3570       C  0.36734553  0.80760767  0.88067614    -0.25500
H3571       H  0.49376329  0.82395037  0.89041660     0.08400
H3572       H  0.41799567  0.80915152  0.89127147     0.12000
H3573       H  0.49160044  0.83877762  0.86820542     0.11900
H3574       H  0.42458143  0.82789378  0.86261644     0.11700
H3575       H  0.35002854  0.81507728  0.86339236     0.12200
H3576       H  0.35157415  0.80276717  0.88570256     0.14200
C3577       C  0.00615131  0.84137116  0.87383695    -0.05800
C3578       C  0.00722923  0.87679704  0.87023393    -0.05800
C3579       C  0.96894373  0.87929187  0.86937889    -0.23900
C3580       C  0.92866869  0.84587627  0.87198280     0.18300
C3581       C  0.92730374  0.80976574  0.87550331     0.15500
C3582       C  0.96603232  0.80802266  0.87648317    -0.19000
C3583       C  0.88719650  0.77588939  0.87800441    -0.20800
C3584       C  0.84901292  0.77831529  0.87724539    -0.13400
C3585       C  0.84996572  0.81475197  0.87399454     0.03300
C3586       C  0.88989840  0.84815207  0.87123082    -0.25500
H3587       H  0.03790440  0.90286444  0.86813048     0.08400
H3588       H  0.97082420  0.90723019  0.86666406     0.12000
H3589       H  0.96481496  0.78027308  0.87917077     0.11900
H3590       H  0.88543260  0.74778325  0.88064769     0.11700
H3591       H  0.81865231  0.75192094  0.87937703     0.12200
H3592       H  0.89114918  0.87653231  0.86876226     0.14200
C3593       C  0.68247510  0.82224153  0.84540120    -0.05800
C3594       C  0.71916795  0.84928111  0.84125014    -0.05800
C3595       C  0.71360051  0.85918832  0.83442258    -0.23900
C3596       C  0.67121672  0.84258037  0.83163476     0.18300
C3597       C  0.63407329  0.81510149  0.83572027     0.15500
C3598       C  0.63992196  0.80486734  0.84254543    -0.19000
C3599       C  0.59171544  0.79830030  0.83290285    -0.20800
C3600       C  0.58625764  0.80705380  0.82599227    -0.13400
C3601       C  0.62303758  0.83346737  0.82180958     0.03300
C3602       C  0.66545397  0.85213655  0.82477085    -0.25500
H3603       H  0.75221155  0.86336695  0.84332102     0.08400
H3604       H  0.74246513  0.88015777  0.83133974     0.12000
H3605       H  0.61120261  0.78450766  0.84570125     0.11900
H3606       H  0.56283045  0.77733124  0.83598089     0.11700
H3607       H  0.55330948  0.79188965  0.82384919     0.12200
H3608       H  0.69431136  0.87206233  0.82161867     0.14200
C3609       C  0.09254902  0.12392455  0.79042621    -0.05800
C3610       C  0.06668963  0.09200669  0.78541309    -0.05800
C3611       C  0.07051130  0.05449801  0.78444953    -0.23900
C3612       C  0.10040570  0.04849553  0.78845891     0.18300
C3613       C  0.12574219  0.07992962  0.79361677     0.15500
C3614       C  0.12149427  0.11720574  0.79459019    -0.19000
C3615       C  0.15552353  0.07402247  0.79764914    -0.20800
C3616       C  0.16041521  0.03733023  0.79656132    -0.13400
C3617       C  0.13571816  0.00594900  0.79139961     0.03300
C3618       C  0.10562752  0.01178542  0.78736798    -0.25500
H3619       H  0.04407725  0.09641375  0.78214739     0.08400
H3620       H  0.05063322  0.03058221  0.78049938     0.12000
H3621       H  0.14195187  0.14172116  0.79843459     0.11900
H3622       H  0.17511275  0.09782269  0.80163354     0.11700
H3623       H  0.18361561  0.03359737  0.79978233     0.12200
H3624       H  0.08617576  0.98780659  0.78339379     0.14200
C3625       C  0.12819872  0.63962565  0.78703067    -0.05800
C3626       C  0.11079917  0.61282943  0.78105543    -0.05800
C3627       C  0.10794092  0.57166687  0.78061038    -0.23900
C3628       C  0.12238991  0.55623339  0.78612721     0.18300
C3629       C  0.14010017  0.58272159  0.79214757     0.15500
C3630       C  0.14303558  0.62428342  0.79255922    -0.19000
C3631       C  0.15453831  0.56712498  0.79765644    -0.20800
C3632       C  0.15172320  0.52589154  0.79719363    -0.13400
C3633       C  0.13439245  0.49929644  0.79120760     0.03300
C3634       C  0.11955795  0.51481557  0.78569858    -0.25500
H3635       H  0.09933273  0.62366443  0.77667560     0.08400
H3636       H  0.09439232  0.55189980  0.77594447     0.12000
H3637       H  0.15650746  0.64441754  0.79719293     0.11900
H3638       H  0.16816040  0.58687689  0.80231956     0.11700
H3639       H  0.16342254  0.51499702  0.80153234     0.12200
H3640       H  0.10600324  0.49484732  0.78104967     0.14200
C3641       C  0.44707980  0.62627934  0.79437815    -0.05800
C3642       C  0.41527178  0.62531804  0.79897433    -0.05800
C3643       C  0.37505987  0.58646119  0.79997811    -0.23900
C3644       C  0.36592950  0.54757841  0.79646218     0.18300
C3645       C  0.39837686  0.54769516  0.79206875     0.15500
C3646       C  0.43852948  0.58698396  0.79102035    -0.19000
C3647       C  0.38972093  0.50872089  0.78865803    -0.20800
C3648       C  0.34853633  0.47067142  0.78927270    -0.13400
C3649       C  0.31489353  0.47064158  0.79330511     0.03300
C3650       C  0.32446646  0.50905438  0.79707835    -0.25500
H3651       H  0.42099110  0.65500101  0.80166979     0.08400
H3652       H  0.35081556  0.58704190  0.80341097     0.12000
H3653       H  0.46296219  0.58702844  0.78755373     0.11900
H3654       H  0.41439596  0.50796486  0.78535253     0.11700
H3655       H  0.34263362  0.44157727  0.78637417     0.12200
H3656       H  0.29917520  0.50964811  0.80024671     0.14200
C3657       C  0.80581482  0.97955826  0.78703948    -0.05800
C3658       C  0.83478214  0.98806200  0.78143229    -0.05800
C3659       C  0.87167558  0.03008560  0.78054377    -0.23900
C3660       C  0.88010411  0.06444291  0.78521647     0.18300
C3661       C  0.85078367  0.05639332  0.79078383     0.15500
C3662       C  0.81414037  0.01422189  0.79166902    -0.19000
C3663       C  0.85866183  0.09057448  0.79542709    -0.20800
C3664       C  0.89589608  0.13221029  0.79468191    -0.13400
C3665       C  0.92616958  0.14058402  0.78928377     0.03300
C3666       C  0.91760710  0.10647461  0.78449431    -0.25500
H3667       H  0.82905221  0.96220697  0.77774452     0.08400
H3668       H  0.89367437  0.03566450  0.77621812     0.12000
H3669       H  0.79193082  0.00859353  0.79596859     0.11900
H3670       H  0.83634122  0.08493242  0.79970821     0.11700
H3671       H  0.90152238  0.15754564  0.79846721     0.12200
H3672       H  0.94050879  0.11225653  0.78029564     0.14200
C3673       C  0.39725186  0.41807485  0.92888207    -0.05800
C3674       C  0.39480597  0.38092436  0.92551877    -0.05800
C3675       C  0.37004961  0.36337280  0.91941904    -0.23900
C3676       C  0.34692175  0.38239882  0.91648310     0.18300
C3677       C  0.34936074  0.41990804  0.91975259     0.15500
C3678       C  0.37435323  0.43746069  0.92589829    -0.19000
C3679       C  0.32677465  0.43937290  0.91681071    -0.20800
C3680       C  0.30246449  0.42233259  0.91068845    -0.13400
C3681       C  0.29959563  0.38504799  0.90731037     0.03300
C3682       C  0.32176389  0.36489717  0.91032048    -0.25500
H3683       H  0.41216206  0.36520697  0.92760192     0.08400
H3684       H  0.36902444  0.33483336  0.91699797     0.12000
H3685       H  0.37572015  0.46604792  0.92836783     0.11900
H3686       H  0.32809691  0.46807762  0.91922440     0.11700
H3687       H  0.28571560  0.43862474  0.90859136     0.12200
H3688       H  0.32025898  0.33637175  0.90780666     0.14200
C3689       C  0.16860344  0.33746517  0.82193206    -0.05800
C3690       C  0.18088974  0.37769128  0.82533613    -0.05800
C3691       C  0.17806931  0.37951342  0.83257961    -0.23900
C3692       C  0.16274961  0.34113041  0.83657030     0.18300
C3693       C  0.15120711  0.30070451  0.83324086     0.15500
C3694       C  0.15440664  0.29915714  0.82597376    -0.19000
C3695       C  0.13615661  0.26236385  0.83722998    -0.20800
C3696       C  0.13306600  0.26413005  0.84446730    -0.13400
C3697       C  0.14454786  0.30419777  0.84786537     0.03300
C3698       C  0.15900938  0.34256259  0.84383356    -0.25500
H3699       H  0.19171027  0.40765509  0.82238854     0.08400
H3700       H  0.18728444  0.41087196  0.83505244     0.12000
H3701       H  0.14439823  0.26770730  0.82346321     0.11900
H3702       H  0.12711791  0.23104181  0.83475777     0.11700
H3703       H  0.12207660  0.23412341  0.84741034     0.12200
H3704       H  0.16848731  0.37386920  0.84635144     0.14200
C3705       C  0.99841710  0.16250513  0.87816525    -0.05800
C3706       C  0.97129708  0.15331713  0.88404966    -0.05800
C3707       C  0.93047867  0.11498553  0.88440176    -0.23900
C3708       C  0.91572991  0.08476877  0.87888946     0.18300
C3709       C  0.94186619  0.09372221  0.87285517     0.15500
C3710       C  0.98314424  0.13267315  0.87251350    -0.19000
C3711       C  0.92651935  0.06304439  0.86735888    -0.20800
C3712       C  0.88641710  0.02339833  0.86794726    -0.13400
C3713       C  0.86083163  0.01382821  0.87403029     0.03300
C3714       C  0.87557420  0.04528090  0.87941986    -0.25500
H3715       H  0.98188155  0.17545011  0.88849028     0.08400
H3716       H  0.91073935  0.10863209  0.88905258     0.12000
H3717       H  0.00349938  0.13930599  0.86792884     0.11900
H3718       H  0.94582586  0.06935064  0.86266023     0.11700
H3719       H  0.87573888  0.00002837  0.86366901     0.12200
H3720       H  0.85622847  0.03877556  0.88412219     0.14200
C3721       C  0.49829663  0.66486038  0.87925272    -0.05800
C3722       C  0.46438667  0.66214176  0.88350783    -0.05800
C3723       C  0.42604487  0.62168005  0.88452188    -0.23900
C3724       C  0.42135718  0.58338665  0.88135252     0.18300
C3725       C  0.45543008  0.58601002  0.87708184     0.15500
C3726       C  0.49339506  0.62667582  0.87601563    -0.19000
C3727       C  0.45113477  0.54790019  0.87394818    -0.20800
C3728       C  0.41289903  0.50751592  0.87489655    -0.13400
C3729       C  0.37829627  0.50453413  0.87900411     0.03300
C3730       C  0.38304862  0.54261073  0.88231276    -0.25500
H3731       H  0.46754421  0.69129198  0.88605356     0.08400
H3732       H  0.40023114  0.62029927  0.88780210     0.12000
H3733       H  0.51959642  0.62836775  0.87279145     0.11900
H3734       H  0.47712741  0.54939599  0.87069965     0.11700
H3735       H  0.41020163  0.47868456  0.87230978     0.12200
H3736       H  0.35657931  0.54082704  0.88547331     0.14200
C3737       C  0.20517287  0.01761029  0.87421431    -0.05800
C3738       C  0.24310794  0.05271637  0.87728931    -0.05800
C3739       C  0.24519900  0.09266243  0.87892395    -0.23900
C3740       C  0.20929205  0.09849806  0.87756132     0.18300
C3741       C  0.17156297  0.06418558  0.87423086     0.15500
C3742       C  0.16984438  0.02408335  0.87252129    -0.19000
C3743       C  0.13581474  0.07025639  0.87281499    -0.20800
C3744       C  0.13753596  0.10983659  0.87462728    -0.13400
C3745       C  0.17480804  0.14414244  0.87796948     0.03300
C3746       C  0.21054115  0.13805567  0.87947015    -0.25500
H3747       H  0.27090906  0.04878224  0.87864015     0.08400
H3748       H  0.27456319  0.11862491  0.88140503     0.12000
H3749       H  0.14025264  0.99726040  0.87022413     0.11900
H3750       H  0.10660732  0.04451113  0.87026790     0.11700
H3751       H  0.10966657  0.11382960  0.87334794     0.12200
H3752       H  0.23977259  0.16455613  0.88190361     0.14200
C3753       C  0.15483529  0.63090340  0.87720262    -0.05800
C3754       C  0.12489911  0.59493433  0.87311088    -0.05800
C3755       C  0.12683495  0.55606189  0.87287898    -0.23900
C3756       C  0.15873007  0.55243678  0.87673419     0.18300
C3757       C  0.18836395  0.58790228  0.88099658     0.15500
C3758       C  0.18614020  0.62678161  0.88122532    -0.19000
C3759       C  0.22010396  0.58408789  0.88488135    -0.20800
C3760       C  0.22256069  0.54547139  0.88451878    -0.13400
C3761       C  0.19358641  0.51022870  0.88021658     0.03300
C3762       C  0.16163950  0.51401335  0.87634990    -0.25500
H3763       H  0.10039090  0.59705497  0.86998547     0.08400
H3764       H  0.10372993  0.52902839  0.86961188     0.12000
H3765       H  0.20956171  0.65415777  0.88441061     0.11900
H3766       H  0.24312826  0.61101326  0.88817373     0.11700
H3767       H  0.24751754  0.54342335  0.88753362     0.12200
H3768       H  0.13881610  0.48696063  0.87305264     0.14200
C3769       C  0.25753384  0.03512005  0.73932283    -0.05800
C3770       C  0.28666285  0.02192431  0.74192965    -0.05800
C3771       C  0.27640162  0.99590299  0.74788935    -0.23900
C3772       C  0.23689673  0.98265838  0.75145654     0.18300
C3773       C  0.20759611  0.99625216  0.74901648     0.15500
C3774       C  0.21796072  0.02224520  0.74296130    -0.19000
C3775       C  0.16835574  0.98338792  0.75266638    -0.20800
C3776       C  0.15817588  0.95723325  0.75863306    -0.13400
C3777       C  0.18684480  0.94303252  0.76108582     0.03300
C3778       C  0.22632483  0.95608623  0.75742394    -0.25500
H3779       H  0.31733201  0.03109253  0.73928896     0.08400
H3780       H  0.29938322  0.98596387  0.74969152     0.12000
H3781       H  0.19517232  0.03223764  0.74108011     0.11900
H3782       H  0.14547112  0.99355617  0.75090789     0.11700
H3783       H  0.12764588  0.94804756  0.76131999     0.12200
H3784       H  0.24904986  0.94579436  0.75922371     0.14200
C3785       C  0.28505801  0.16769316  0.65356723    -0.05800
C3786       C  0.24750071  0.16039573  0.65731201    -0.05800
C3787       C  0.24856369  0.16421949  0.66457496    -0.23900
C3788       C  0.28726942  0.17559580  0.66828742     0.18300
C3789       C  0.32517054  0.18265103  0.66463614     0.15500
C3790       C  0.32380999  0.17845903  0.65732480    -0.19000
C3791       C  0.36382534  0.19390885  0.66836653    -0.20800
C3792       C  0.36471764  0.19731425  0.67564285    -0.13400
C3793       C  0.32706507  0.18982208  0.67937084     0.03300
C3794       C  0.28849872  0.17948456  0.67559241    -0.25500
H3795       H  0.21722798  0.15212539  0.65462052     0.08400
H3796       H  0.21908171  0.15851188  0.66728867     0.12000
H3797       H  0.35323546  0.18440291  0.65456517     0.11900
H3798       H  0.39329332  0.19952864  0.66566017     0.11700
H3799       H  0.39473965  0.20496381  0.67836089     0.12200
H3800       H  0.25887259  0.17309635  0.67833526     0.14200
C3801       C  0.33426201  0.30362947  0.59325302    -0.05800
C3802       C  0.30175721  0.30888884  0.58980000    -0.05800
C3803       C  0.31130130  0.33258650  0.58356375    -0.23900
C3804       C  0.35362904  0.35177622  0.58065432     0.18300
C3805       C  0.38658852  0.34728328  0.58414307     0.15500
C3806       C  0.37675005  0.32330579  0.59036193    -0.19000
C3807       C  0.42903328  0.36668921  0.58135183    -0.20800
C3808       C  0.43873542  0.38959425  0.57509538    -0.13400
C3809       C  0.40625720  0.39371337  0.57143140     0.03300
C3810       C  0.36361432  0.37501466  0.57431144    -0.25500
H3811       H  0.26875501  0.29443700  0.59189321     0.08400
H3812       H  0.28552663  0.33575694  0.58100857     0.12000
H3813       H  0.40239789  0.32006134  0.59295046     0.11900
H3814       H  0.45478927  0.36387511  0.58398633     0.11700
H3815       H  0.47194895  0.40385397  0.57310057     0.12200
H3816       H  0.33814486  0.37786721  0.57158593     0.14200
C3817       C  0.47448490  0.33060235  0.70701783    -0.05800
C3818       C  0.50619747  0.33835901  0.70188751    -0.05800
C3819       C  0.54455409  0.37970030  0.70135261    -0.23900
C3820       C  0.55213029  0.41411852  0.70595514     0.18300
C3821       C  0.52019345  0.40690338  0.71105168     0.15500
C3822       C  0.48169535  0.36554189  0.71152348    -0.19000
C3823       C  0.52757504  0.44092974  0.71569431    -0.20800
C3824       C  0.56659562  0.48151321  0.71539368    -0.13400
C3825       C  0.59912968  0.48927836  0.71040605     0.03300
C3826       C  0.59131372  0.45531800  0.70563474    -0.25500
H3827       H  0.50168004  0.31229096  0.69833430     0.08400
H3828       H  0.56857950  0.38455441  0.69739586     0.12000
H3829       H  0.45769366  0.36046859  0.71550240     0.11900
H3830       H  0.50338391  0.43598341  0.71962931     0.11700
H3831       H  0.57133874  0.50682844  0.71912584     0.12200
H3832       H  0.61600734  0.46053701  0.70177743     0.14200
C3833       C  0.95855936  0.84714644  0.71227875    -0.05800
C3834       C  0.96422079  0.88449874  0.71594882    -0.05800
C3835       C  0.00605742  0.92169662  0.71666764    -0.23900
C3836       C  0.04297502  0.92181264  0.71382906     0.18300
C3837       C  0.03753988  0.88417515  0.71018778     0.15500
C3838       C  0.99542531  0.84733574  0.70938452    -0.19000
C3839       C  0.07432963  0.88389976  0.70741764    -0.20800
C3840       C  0.11613473  0.92088426  0.70813199    -0.13400
C3841       C  0.12200988  0.95881294  0.71165597     0.03300
C3842       C  0.08518159  0.95889772  0.71454615    -0.25500
H3843       H  0.93621554  0.88501146  0.71822839     0.08400
H3844       H  0.00956637  0.95022963  0.71947464     0.12000
H3845       H  0.99147295  0.81843077  0.70663030     0.11900
H3846       H  0.07075041  0.85519218  0.70465595     0.11700
H3847       H  0.14394084  0.91985568  0.70588209     0.12200
H3848       H  0.08919119  0.98805056  0.71722186     0.14200
C3849       C  0.65762872  0.73851834  0.76134644    -0.05800
C3850       C  0.62422377  0.70281118  0.75761069    -0.05800
C3851       C  0.63396905  0.68821715  0.75142654    -0.23900
C3852       C  0.67725628  0.70906276  0.74888875     0.18300
C3853       C  0.71093179  0.74497813  0.75261476     0.15500
C3854       C  0.70095283  0.75939682  0.75877999    -0.19000
C3855       C  0.75416649  0.76616055  0.75011373    -0.20800
C3856       C  0.76395689  0.75244919  0.74389048    -0.13400
C3857       C  0.73076879  0.71704122  0.74007394     0.03300
C3858       C  0.68743749  0.69505246  0.74265850    -0.25500
H3859       H  0.59058226  0.68609371  0.75947042     0.08400
H3860       H  0.60768682  0.66068352  0.74863172     0.12000
H3861       H  0.72724622  0.78678969  0.76160513     0.11900
H3862       H  0.78035368  0.79366145  0.75293205     0.11700
H3863       H  0.79763565  0.76984384  0.74204627     0.12200
H3864       H  0.66149868  0.66786783  0.73974956     0.14200
C3865       C  0.00184132  0.85290911  0.62111249    -0.05800
C3866       C  0.03133169  0.86340352  0.61553242    -0.05800
C3867       C  0.07042534  0.90410893  0.61532048    -0.23900
C3868       C  0.08084239  0.93522279  0.62067874     0.18300
C3869       C  0.05217668  0.92487145  0.62639824     0.15500
C3870       C  0.01300569  0.88382847  0.62659230    -0.19000
C3871       C  0.06284222  0.95607707  0.63176384    -0.20800
C3872       C  0.10104598  0.99761534  0.63138125    -0.13400
C3873       C  0.12935354  0.00870964  0.62563078     0.03300
C3874       C  0.11911000  0.97678746  0.62034261    -0.25500
H3875       H  0.02395814  0.84035818  0.61127209     0.08400
H3876       H  0.09225092  0.91149468  0.61090990     0.12000
H3877       H  0.99082398  0.87647700  0.63095238     0.11900
H3878       H  0.04131822  0.94857520  0.63621629     0.11700
H3879       H  0.10811349  0.02121225  0.63554521     0.12200
H3880       H  0.14047168  0.98443229  0.61586187     0.14200
C3881       C  0.62682901  0.51655037  0.62272407    -0.05800
C3882       C  0.60187371  0.50924350  0.62883640    -0.05800
C3883       C  0.55812927  0.47546440  0.62916936    -0.23900
C3884       C  0.53820520  0.44818217  0.62339904     0.18300
C3885       C  0.56257830  0.45541326  0.61719242     0.15500
C3886       C  0.60670323  0.48956312  0.61688358    -0.19000
C3887       C  0.54256128  0.42787129  0.61143754    -0.20800
C3888       C  0.49936213  0.39275975  0.61189415    -0.13400
C3889       C  0.47512521  0.38466653  0.61809564     0.03300
C3890       C  0.49461961  0.41317235  0.62379628    -0.25500
H3891       H  0.61625255  0.52940661  0.63343608     0.08400
H3892       H  0.54002329  0.47042909  0.63397065     0.12000
H3893       H  0.62531909  0.49487912  0.61212861     0.11900
H3894       H  0.56056689  0.43293951  0.60662543     0.11700
H3895       H  0.48512869  0.37142604  0.60740480     0.12200
H3896       H  0.47654248  0.40714265  0.62862689     0.14200
C3897       C  0.81904685  0.69696742  0.65399498    -0.05800
C3898       C  0.85103252  0.73365600  0.65773517    -0.05800
C3899       C  0.85620289  0.73083946  0.66491149    -0.23900
C3900       C  0.82971591  0.69118044  0.66847824     0.18300
C3901       C  0.79800894  0.65392333  0.66476341     0.15500
C3902       C  0.79284159  0.65705877  0.65758486    -0.19000
C3903       C  0.77151869  0.61424983  0.66830510    -0.20800
C3904       C  0.77508728  0.61194073  0.67552135    -0.13400
C3905       C  0.80556850  0.64912589  0.67934574     0.03300
C3906       C  0.83358957  0.68845109  0.67571630    -0.25500
H3907       H  0.87192060  0.76459401  0.65512054     0.08400
H3908       H  0.88078140  0.75977674  0.66768059     0.12000
H3909       H  0.76847252  0.62810684  0.65478906     0.11900
H3910       H  0.74718043  0.58526107  0.66551624     0.11700
H3911       H  0.75300139  0.58135565  0.67813211     0.12200
H3912       H  0.85715953  0.71767088  0.67854761     0.14200
C3913       C  0.92480270  0.56891416  0.57339136    -0.05800
C3914       C  0.95887666  0.60779593  0.57643348    -0.05800
C3915       C  0.95112772  0.62717708  0.58226929    -0.23900
C3916       C  0.90899162  0.60838447  0.58522775     0.18300
C3917       C  0.87439138  0.56939160  0.58225101     0.15500
C3918       C  0.88243430  0.54987887  0.57638772    -0.19000
C3919       C  0.83225260  0.55054121  0.58519306    -0.20800
C3920       C  0.82444797  0.56977782  0.59102774    -0.13400
C3921       C  0.85847412  0.60856395  0.59410118     0.03300
C3922       C  0.90089580  0.62778861  0.59111180    -0.25500
H3923       H  0.99185891  0.62339569  0.57430791     0.08400
H3924       H  0.97820421  0.65700535  0.58446350     0.12000
H3925       H  0.85559719  0.52005892  0.57414133     0.11900
H3926       H  0.80521128  0.52070622  0.58299324     0.11700
H3927       H  0.79143949  0.55399100  0.59314630     0.12200
H3928       H  0.92769857  0.65746831  0.59339660     0.14200
C3929       C  0.83271997  0.01809481  0.71055737    -0.05800
C3930       C  0.82879525  0.99793635  0.70403750    -0.05800
C3931       C  0.81796972  0.95394570  0.70352384    -0.23900
C3932       C  0.81111686  0.92900271  0.70952395     0.18300
C3933       C  0.81690033  0.94914203  0.71614179     0.15500
C3934       C  0.82777421  0.99376601  0.71663145    -0.19000
C3935       C  0.81116874  0.92399933  0.72211935    -0.20800
C3936       C  0.80034947  0.87972823  0.72152523    -0.13400
C3937       C  0.79395675  0.85943715  0.71495305     0.03300
C3938       C  0.79894716  0.88430037  0.70897895    -0.25500
H3939       H  0.83298199  0.01602582  0.69927656     0.08400
H3940       H  0.81435926  0.93926220  0.69841575     0.12000
H3941       H  0.83061521  0.00886352  0.72168533     0.11900
H3942       H  0.81551965  0.93866439  0.72724378     0.11700
H3943       H  0.79696661  0.86127527  0.72621196     0.12200
H3944       H  0.79489942  0.86926132  0.70388561     0.14200
C3945       C  0.82718648  0.37444701  0.71000413    -0.05800
C3946       C  0.85714928  0.41095655  0.71400043    -0.05800
C3947       C  0.85552460  0.44998390  0.71401955    -0.23900
C3948       C  0.82370955  0.45324388  0.71007608     0.18300
C3949       C  0.79340927  0.41702966  0.70601241     0.15500
C3950       C  0.79542268  0.37784514  0.70597735    -0.19000
C3951       C  0.76152192  0.42067250  0.70210734    -0.20800
C3952       C  0.75940829  0.45969794  0.70229394    -0.13400
C3953       C  0.78912125  0.49571063  0.70639747     0.03300
C3954       C  0.82150480  0.49209345  0.71021423    -0.25500
H3955       H  0.88208037  0.40944226  0.71710634     0.08400
H3956       H  0.87903629  0.47757343  0.71715753     0.12000
H3957       H  0.77190312  0.34987785  0.70290339     0.11900
H3958       H  0.73793453  0.39318368  0.69896486     0.11700
H3959       H  0.73401418  0.46135366  0.69934725     0.12200
H3960       H  0.84496153  0.51946482  0.71339828     0.14200
C3961       C  0.12525252  0.13853036  0.71173031    -0.05800
C3962       C  0.09214624  0.11362778  0.71660989    -0.05800
C3963       C  0.05582608  0.11967658  0.71744025    -0.23900
C3964       C  0.05210726  0.15120045  0.71347926     0.18300
C3965       C  0.08496424  0.17618384  0.70852734     0.15500
C3966       C  0.12088981  0.16935697  0.70762522    -0.19000
C3967       C  0.08176765  0.20814246  0.70462847    -0.20800
C3968       C  0.04630058  0.21520119  0.70559029    -0.13400
C3969       C  0.01289128  0.19023530  0.71043712     0.03300
C3970       C  0.01624063  0.15826751  0.71439649    -0.25500
H3971       H  0.09445618  0.08961154  0.71983675     0.08400
H3972       H  0.03094790  0.10010411  0.72125440     0.12000
H3973       H  0.14610961  0.18906903  0.70385993     0.11900
H3974       H  0.10674102  0.22775058  0.70082692     0.11700
H3975       H  0.04486783  0.24002975  0.70244745     0.12200
H3976       H  0.99079516  0.13854321  0.71812761     0.14200
C3977       C  0.48910816  0.14937828  0.71099907    -0.05800
C3978       C  0.49999572  0.13134351  0.71667318    -0.05800
C3979       C  0.54106732  0.13430984  0.71709729    -0.23900
C3980       C  0.57241579  0.15548540  0.71187035     0.18300
C3981       C  0.56222103  0.17363999  0.70611320     0.15500
C3982       C  0.52059451  0.17043218  0.70569943    -0.19000
C3983       C  0.59405756  0.19502880  0.70091972    -0.20800
C3984       C  0.63564838  0.19879212  0.70147327    -0.13400
C3985       C  0.64616832  0.18109946  0.70722077     0.03300
C3986       C  0.61396287  0.15912474  0.71237082    -0.25500
H3987       H  0.47682182  0.11508212  0.72085945     0.08400
H3988       H  0.54841656  0.12028297  0.72155489     0.12000
H3989       H  0.51299081  0.18471315  0.70130534     0.11900
H3990       H  0.58691903  0.20913837  0.69645442     0.11700
H3991       H  0.65962120  0.21574782  0.69741268     0.12200
H3992       H  0.62126643  0.14518231  0.71684634     0.14200
C3993       C  0.02167271  0.26898046  0.76125847    -0.05800
C3994       C  0.00298126  0.22510344  0.75883071    -0.05800
C3995       C  0.98024676  0.21203189  0.75252794    -0.23900
C3996       C  0.97535822  0.24238934  0.74848066     0.18300
C3997       C  0.99401885  0.28661343  0.75079515     0.15500
C3998       C  0.01732032  0.29975944  0.75714200    -0.19000
C3999       C  0.98847511  0.31671880  0.74675760    -0.20800
C4000       C  0.96435512  0.30307135  0.74055253    -0.13400
C4001       C  0.94563172  0.25911205  0.73819380     0.03300
C4002       C  0.95166981  0.22902515  0.74219670    -0.25500
H4003       H  0.00566317  0.20044627  0.76182630     0.08400
H4004       H  0.96613855  0.17798169  0.75085007     0.12000
H4005       H  0.03137328  0.33363105  0.75891165     0.11900
H4006       H  0.00247279  0.35076552  0.74842572     0.11700
H4007       H  0.96051541  0.32712091  0.73757995     0.12200
H4008       H  0.93730784  0.19498397  0.74049253     0.14200
C4009       C  0.59991741  0.17135065  0.62348507    -0.05800
C4010       C  0.57062039  0.15357407  0.62912168    -0.05800
C4011       C  0.53365644  0.15833517  0.62959698    -0.23900
C4012       C  0.52498484  0.18099695  0.62445206     0.18300
C4013       C  0.55431449  0.19993508  0.61881262     0.15500
C4014       C  0.59180785  0.19511610  0.61836236    -0.19000
C4015       C  0.54521696  0.22290169  0.61372133    -0.20800
C4016       C  0.50705058  0.22624645  0.61416624    -0.13400
C4017       C  0.47735060  0.20674311  0.61971882     0.03300
C4018       C  0.48705760  0.18452789  0.62486797    -0.25500
H4019       H  0.57611347  0.13572556  0.63321101     0.08400
H4020       H  0.51162867  0.14395942  0.63398215     0.12000
H4021       H  0.61421254  0.20936342  0.61401661     0.11900
H4022       H  0.56737636  0.23793465  0.60937165     0.11700
H4023       H  0.50068070  0.24384886  0.61014190     0.12200
H4024       H  0.46480646  0.16937702  0.62920765     0.14200
C4025       C  0.10993728  0.18560782  0.62248888    -0.05800
C4026       C  0.10341434  0.21409322  0.61815923    -0.05800
C4027       C  0.06379286  0.21413437  0.61822651    -0.23900
C4028       C  0.02947483  0.18530298  0.62256545     0.18300
C4029       C  0.03515175  0.15638719  0.62697687     0.15500
C4030       C  0.07560323  0.15686137  0.62694815    -0.19000
C4031       C  0.00011173  0.12748644  0.63127323    -0.20800
C4032       C  0.95979716  0.12689202  0.63109884    -0.13400
C4033       C  0.95390714  0.15516243  0.62661884     0.03300
C4034       C  0.98935542  0.18471217  0.62245518    -0.25500
H4035       H  0.12926967  0.23687752  0.61473055     0.08400
H4036       H  0.05989791  0.23657331  0.61483349     0.12000
H4037       H  0.08011544  0.13462116  0.63029571     0.11900
H4038       H  0.00371355  0.10505177  0.63470497     0.11700
H4039       H  0.93305221  0.10381064  0.63436732     0.12200
H4040       H  0.98570397  0.20719388  0.61903227     0.14200
C4041       C  0.79920896  0.48692044  0.61917353    -0.05800
C4042       C  0.77232697  0.45731970  0.61396277    -0.05800
C4043       C  0.76519553  0.41431515  0.61367705    -0.23900
C4044       C  0.78477124  0.40014385  0.61859839     0.18300
C4045       C  0.81234596  0.42989421  0.62378770     0.15500
C4046       C  0.81942931  0.47292318  0.62403517    -0.19000
C4047       C  0.83215324  0.41608901  0.62869925    -0.20800
C4048       C  0.82439903  0.37302733  0.62852718    -0.13400
C4049       C  0.79651484  0.34272701  0.62344973     0.03300
C4050       C  0.77698445  0.35670067  0.61845796    -0.25500
H4051       H  0.75654667  0.46729103  0.61012003     0.08400
H4052       H  0.74412225  0.39206992  0.60964129     0.12000
H4053       H  0.84018006  0.49523966  0.62809643     0.11900
H4054       H  0.85346760  0.43851238  0.63270100     0.11700
H4055       H  0.84016362  0.36347341  0.63243801     0.12200
H4056       H  0.75549126  0.33381700  0.61451688     0.14200
C4057       C  0.81514253  0.85634832  0.62614140    -0.05800
C4058       C  0.84396679  0.89158688  0.63045254    -0.05800
C4059       C  0.84094535  0.93006214  0.63085270    -0.23900
C4060       C  0.80889544  0.93366201  0.62698176     0.18300
C4061       C  0.77945250  0.89808154  0.62273444     0.15500
C4062       C  0.78272123  0.85997844  0.62235950    -0.19000
C4063       C  0.74728445  0.90112872  0.61885662    -0.20800
C4064       C  0.74460540  0.93952452  0.61908510    -0.13400
C4065       C  0.77377738  0.97536842  0.62324243     0.03300
C4066       C  0.80578572  0.97213801  0.62723004    -0.25500
H4067       H  0.86918449  0.88968871  0.63341327     0.08400
H4068       H  0.86380063  0.95706438  0.63414832     0.12000
H4069       H  0.75977324  0.83302826  0.61905829     0.11900
H4070       H  0.72436617  0.87389264  0.61560243     0.11700
H4071       H  0.71955695  0.94112335  0.61602468     0.12200
H4072       H  0.82871718  0.99977005  0.63042335     0.14200
C4073       C  0.82113723  0.17836337  0.65491696    -0.05800
C4074       C  0.84805682  0.21896656  0.65827095    -0.05800
C4075       C  0.84216041  0.22448704  0.66530340    -0.23900
C4076       C  0.80893832  0.18958042  0.66908608     0.18300
C4077       C  0.78287682  0.14801694  0.66584732     0.15500
C4078       C  0.78943824  0.14254144  0.65878850    -0.19000
C4079       C  0.75032234  0.11288915  0.66970785    -0.20800
C4080       C  0.74460891  0.11855418  0.67676337    -0.13400
C4081       C  0.77043500  0.15974553  0.68000489     0.03300
C4082       C  0.80189673  0.19538672  0.67608843    -0.25500
H4083       H  0.87261594  0.24699304  0.65537186     0.08400
H4084       H  0.86284692  0.25635914  0.66773656     0.12000
H4085       H  0.76817905  0.11127160  0.65622006     0.11900
H4086       H  0.73011664  0.08077681  0.66732062     0.11700
H4087       H  0.72097548  0.09045056  0.67975067     0.12200
H4088       H  0.82297030  0.22689463  0.67861284     0.14200
C4089       C  0.66230614  0.10485584  0.59605661    -0.05800
C4090       C  0.65825777  0.13791217  0.59255495    -0.05800
C4091       C  0.63311218  0.12824456  0.58648148    -0.23900
C4092       C  0.61115830  0.08521629  0.58376757     0.18300
C4093       C  0.61498226  0.05167845  0.58720252     0.15500
C4094       C  0.64065247  0.06168872  0.59328583    -0.19000
C4095       C  0.59291355  0.00862112  0.58450448    -0.20800
C4096       C  0.56768701  0.99893416  0.57844208    -0.13400
C4097       C  0.56382346  0.03204227  0.57491428     0.03300
C4098       C  0.58560799  0.07524164  0.57766976    -0.25500
H4099       H  0.67464026  0.17150841  0.59450611     0.08400
H4100       H  0.63073168  0.15446865  0.58391895     0.12000
H4101       H  0.64325461  0.03573101  0.59590143     0.11900
H4102       H  0.59526738  0.98238913  0.58707026     0.11700
H4103       H  0.55129903  0.96531351  0.57650045     0.12200
H4104       H  0.58318354  0.10124295  0.57503522     0.14200
loop_ 
_geom_bond_atom_site_label_1 
_geom_bond_atom_site_label_2 
_geom_bond_distance 
_geom_bond_site_symmetry_2 
_ccdc_geom_bond_type 
Zr1           O2   2.439       .  S
Zr1           O3   2.436       .  S
Zr1           O4   2.436       .  S
Zr1           O7   2.443       .  S
Zr1           O9   2.384       .  S
Zr1          O10   2.382       .  S
Zr1          O11   2.407       .  S
Zr1          O12   2.396       .  S
O2           H58   0.990       .  S
O2           H66   0.990       .  S
O3           C23   1.285       .  A
O4           C25   1.286       .  A
O5          Zr15   2.395       .  S
O5           C24   1.279       .  A
O6          Zr14   2.448       .  S
O6           C25   1.288       .  A
O7           C24   1.288       .  A
O8          Zr16   2.422       .  S
O8           C23   1.283       .  A
O9          Zr14   2.390       .  S
O9          Zr16   2.369       .  S
O10         Zr15   2.381       .  S
O10         Zr16   2.378       .  S
O10          H45   0.966       .  S
O11         Zr14   2.398       .  S
O11         Zr31   2.398       .  S
O11          H48   0.966       .  S
O12         Zr15   2.383       .  S
O12         Zr31   2.386       .  S
Zr13         O38   2.442       .  S
Zr13         O32   2.446       .  S
Zr13         O40   2.453       .  S
Zr13         O28   2.417       .  S
Zr13         O19   2.390       .  S
Zr13         O20   2.419       .  S
Zr13         O21   2.386       .  S
Zr13         O22   2.379       .  S
Zr14         O33   2.437       .  S
Zr14         O26   2.435       .  S
Zr14         O27   2.435       .  S
Zr14         O20   2.404       .  S
Zr14         O21   2.394       .  S
Zr15         O17   2.435       .  S
Zr15         O39   2.437       .  S
Zr15         O41   2.408       .  S
Zr15         O19   2.386       .  S
Zr15         O22   2.380       .  S
Zr16         O42   2.436       .  S
Zr16         O43   2.437       .  S
Zr16         O18   2.438       .  S
Zr16         O19   2.388       .  S
Zr16         O20   2.403       .  S
O17          H54   0.990       .  S
O18          H49   0.990       .  S
O18          H63   0.990       .  S
O20          H46   0.966       .  S
O21         Zr31   2.371       .  S
O22         Zr31   2.384       .  S
O22          H47   0.965       .  S
C23        C4009   1.485       .  S
C24        C4049   1.479       .  S
C25        C4089   1.492       .  S
O26          H62   0.990   1_545  S
O27          C29   1.286       .  A
O28          C29   1.280       .  A
C29        C4065   1.476   1_545  S
O30         Zr31   2.438       .  S
O30          H59   0.991       .  S
Zr31         O34   2.436       .  S
Zr31         O35   2.439       .  S
Zr31         O36   2.409       .  S
O32          C37   1.285       .  A
O33          H50   0.990       .  S
O33          H65   0.990       .  S
O34          H51   0.990       .  S
O35          H55   0.990       .  S
O35          H64   0.990       .  S
O36          C37   1.281       .  A
C37        C4033   1.484       .  S
O38          H57   0.990       .  S
O38          H61   0.990       .  S
O39          H53   0.990       .  S
O39          H60   0.990       .  S
O40          C44   1.288       .  A
O41          C44   1.280       .  A
O42          H52   0.990       .  S
O43          H56   0.990       .  S
C44        C4073   1.474       .  S
Zr67         O68   2.442       .  S
Zr67         O69   2.443       .  S
Zr67         O70   2.445       .  S
Zr67         O73   2.429       .  S
Zr67         O75   2.380       .  S
Zr67         O76   2.386       .  S
Zr67         O77   2.408       .  S
Zr67         O78   2.407       .  S
O68         H124   0.990       .  S
O68         H132   0.991       .  S
O69          C89   1.287       .  A
O70          C91   1.286       .  A
O71         Zr81   2.436       .  S
O71          C90   1.287       .  A
O72         Zr80   2.417       .  S
O72          C91   1.281       .  A
O73          C90   1.284       .  A
O74         Zr82   2.416       .  S
O74          C89   1.282       .  A
O75         Zr80   2.386       .  S
O75         Zr82   2.382       .  S
O76         Zr81   2.389       .  S
O76         Zr82   2.370       .  S
O76         H111   0.966       .  S
O77         Zr80   2.394       .  S
O77         Zr97   2.380       .  S
O77         H114   0.965       .  S
O78         Zr81   2.389       .  S
O78         Zr97   2.397       .  S
Zr79        O104   2.442       .  S
Zr79         O98   2.443       .  S
Zr79        O106   2.449       .  S
Zr79         O94   2.460       .  S
Zr79         O85   2.406       .  S
Zr79         O86   2.407       .  S
Zr79         O87   2.380       .  S
Zr79         O88   2.390       .  S
Zr80         O99   2.440       .  S
Zr80         O92   2.435       .  S
Zr80         O93   2.411       .  S
Zr80         O86   2.390       .  S
Zr80         O87   2.385       .  S
Zr81         O83   2.434       .  S
Zr81        O105   2.436       .  S
Zr81        O107   2.436       .  S
Zr81         O85   2.394       .  S
Zr81         O88   2.393       .  S
Zr82        O108   2.435       .  S
Zr82        O109   2.436       .  S
Zr82         O84   2.437       .  S
Zr82         O85   2.394       .  S
Zr82         O86   2.387       .  S
O83         H120   0.990       .  S
O84         H115   0.990       .  S
O84         H129   0.990       .  S
O86         H112   0.966       .  S
O87         Zr97   2.376       .  S
O88         Zr97   2.365       .  S
O88         H113   0.966       .  S
C89        C3985   1.487       .  S
C90        C3945   1.484       .  S
C91        C4081   1.470       .  S
O92         H128   0.990       .  S
O93          C95   1.282       .  A
O94          C95   1.289       .  A
C95        C3929   1.483       .  S
O96         Zr97   2.439       .  S
O96         H125   0.990       .  S
Zr97        O100   2.436       .  S
Zr97        O101   2.439       .  S
Zr97        O102   2.422       .  S
O98         C103   1.287       .  A
O99         H116   0.990       .  S
O99         H131   0.990       .  S
O100        H117   0.990       .  S
O101        H121   0.990       .  S
O101        H130   0.990       .  S
O102        C103   1.284       .  A
C103       C3969   1.489   1_655  S
O104        H123   0.990       .  S
O104        H127   0.990       .  S
O105        H119   0.990       .  S
O105        H126   0.990       .  S
O106        C110   1.290       .  A
O107        C110   1.287       .  A
O108        H118   0.990       .  S
O109        H122   0.990       .  S
C110       C4001   1.489       .  S
Zr133       O134   2.438       .  S
Zr133       O135   2.418       .  S
Zr133       O136   2.444       .  S
Zr133       O139   2.449       .  S
Zr133       O141   2.381       .  S
Zr133       O142   2.386       .  S
Zr133       O143   2.405       .  S
Zr133       O144   2.391       .  S
O134        H190   0.990       .  S
O134        H198   0.990       .  S
O135        C155   1.282       .  A
O136        C157   1.288       .  A
O137       Zr147   2.406       .  S
O137        C156   1.281       .  A
O138       Zr146   2.459       .  S
O138        C157   1.290       .  A
O139        C156   1.289       .  A
O140       Zr148   2.427       .  S
O140        C155   1.284       .  A
O141       Zr146   2.386       .  S
O141       Zr148   2.362       .  S
O142       Zr147   2.388       .  S
O142       Zr148   2.377       .  S
O142        H177   0.967       .  S
O143       Zr146   2.405       .  S
O143       Zr163   2.398       .  S
O143        H180   0.965       .  S
O144       Zr147   2.387       .  S
O144       Zr163   2.378       .  S
Zr145       O170   2.442       .  S
Zr145       O164   2.467       .  S
Zr145       O172   2.478       .  S
Zr145       O160   2.424       .  S
Zr145       O151   2.390       .  S
Zr145       O152   2.427       .  S
Zr145       O153   2.390       .  S
Zr145       O154   2.385       .  S
Zr146       O165   2.435       .  S
Zr146       O158   2.434       .  S
Zr146       O159   2.448       .  S
Zr146       O152   2.401       .  S
Zr146       O153   2.399       .  S
Zr147       O149   2.437       .  S
Zr147       O171   2.440       .  S
Zr147       O173   2.415       .  S
Zr147       O151   2.378       .  S
Zr147       O154   2.388       .  S
Zr148       O174   2.435       .  S
Zr148       O175   2.434       .  S
Zr148       O150   2.436       .  S
Zr148       O151   2.383       .  S
Zr148       O152   2.410       .  S
O149        H186   0.990       .  S
O150        H181   0.990       .  S
O150        H195   0.990       .  S
O152        H178   0.968       .  S
O153       Zr163   2.380       .  S
O154       Zr163   2.397       .  S
O154        H179   0.966       .  S
C155       C4041   1.479       .  S
C156       C3881   1.483       .  S
C157       C3921   1.501       .  S
O158        H194   0.990       .  S
O159        C161   1.288       .  A
O160        C161   1.282       .  A
C161       C3865   1.490   1_655  S
O162       Zr163   2.441       .  S
O162        H191   0.990       .  S
Zr163       O166   2.438       .  S
Zr163       O167   2.441       .  S
Zr163       O168   2.389       .  S
O164        C169   1.289       .  A
O165        H182   0.990       .  S
O165        H197   0.990       .  S
O166        H183   0.990       .  S
O167        H187   0.990       .  S
O167        H196   0.990       .  S
O168        C169   1.277       .  A
C169       C4057   1.484       .  S
O170        H189   0.990       .  S
O170        H193   0.991       .  S
O171        H185   0.990       .  S
O171        H192   0.990       .  S
O172        C176   1.291       .  A
O173        C176   1.281       .  A
O174        H184   0.990       .  S
O175        H188   0.990       .  S
C176       C3897   1.490       .  S
Zr199       O200   2.442       .  S
Zr199       O201   2.472       .  S
Zr199       O202   2.469       .  S
Zr199       O205   2.450       .  S
Zr199       O207   2.386       .  S
Zr199       O208   2.385       .  S
Zr199       O209   2.419       .  S
Zr199       O210   2.423       .  S
O200        H256   0.990       .  S
O200        H264   0.990       .  S
O201        C221   1.291       .  A
O202        C223   1.291       .  A
O203       Zr213   2.426       .  S
O203        C222   1.285       .  A
O204       Zr212   2.424       .  S
O204        C223   1.283       .  A
O205        C222   1.288       .  A
O206       Zr214   2.392       .  S
O206        C221   1.277       .  A
O207       Zr212   2.399       .  S
O207       Zr214   2.390       .  S
O208       Zr213   2.387       .  S
O208       Zr214   2.371       .  S
O208        H243   0.966       .  S
O209       Zr212   2.402       .  S
O209       Zr229   2.392       .  S
O209        H246   0.964       .  S
O210       Zr213   2.392       .  S
O210       Zr229   2.413       .  S
Zr211       O236   2.440       .  S
Zr211       O230   2.414       .  S
Zr211       O238   2.413       .  S
Zr211       O226   2.422       .  S
Zr211       O217   2.393       .  S
Zr211       O218   2.395       .  S
Zr211       O219   2.375       .  S
Zr211       O220   2.381       .  S
Zr212       O231   2.439       .  S
Zr212       O224   2.434       .  S
Zr212       O225   2.434       .  S
Zr212       O218   2.394       .  S
Zr212       O219   2.384       .  S
Zr213       O215   2.435       .  S
Zr213       O237   2.435       .  S
Zr213       O239   2.436       .  S
Zr213       O217   2.387       .  S
Zr213       O220   2.386       .  S
Zr214       O240   2.437       .  S
Zr214       O241   2.435       .  S
Zr214       O216   2.435       .  S
Zr214       O217   2.386       .  S
Zr214       O218   2.380       .  S
O215        H252   0.990       .  S
O216        H247   0.990       .  S
O216        H261   0.990       .  S
O218        H244   0.965       .  S
O219       Zr229   2.368       .  S
O220       Zr229   2.359       .  S
O220        H245   0.966       .  S
C221       C3953   1.489       .  S
C222       C3825   1.491       .  S
C223       C3905   1.492       .  S
O224        H260   0.990       .  S
O225        C227   1.286       .  A
O226        C227   1.284       .  A
C227       C3833   1.475       .  S
O228       Zr229   2.438       .  S
O228        H257   0.990       .  S
Zr229       O232   2.436       .  S
Zr229       O233   2.440       .  S
Zr229       O234   2.456       .  S
O230        C235   1.281       .  A
O231        H248   0.990       .  S
O231        H263   0.990       .  S
O232        H249   0.990       .  S
O233        H253   0.990       .  S
O233        H262   0.989       .  S
O234        C235   1.289       .  A
C235       C3937   1.483       .  S
O236        H255   0.990       .  S
O236        H259   0.990       .  S
O237        H251   0.990       .  S
O237        H258   0.990       .  S
O238        C242   1.283       .  A
O239        C242   1.286       .  A
O240        H250   0.991       .  S
O241        H254   0.989       .  S
C242       C3857   1.477       .  S
Zr265       O266   2.438       .  S
Zr265       O267   2.411       .  S
Zr265       O268   2.450       .  S
Zr265       O271   2.436       .  S
Zr265       O273   2.378       .  S
Zr265       O274   2.386       .  S
Zr265       O275   2.397       .  S
Zr265       O276   2.400       .  S
O266        H322   0.990       .  S
O266        H330   0.990       .  S
O267        C287   1.281       .  A
O268        C289   1.289       .  A
O269       Zr279   2.431       .  S
O269        C288   1.286       .  A
O270       Zr278   2.432       .  S
O270        C289   1.285       .  A
O271        C288   1.286       .  A
O272       Zr280   2.450       .  S
O272        C287   1.288       .  A
O273       Zr278   2.385       .  S
O273       Zr280   2.368       .  S
O274       Zr279   2.385       .  S
O274       Zr280   2.374       .  S
O274        H309   0.964       .  S
O275       Zr278   2.396       .  S
O275       Zr295   2.395       .  S
O275        H312   0.966       .  S
O276       Zr279   2.392       .  S
O276       Zr295   2.387       .  S
Zr277       O302   2.442       .  S
Zr277       O296   2.466       .  S
Zr277       O304   2.464       .  S
Zr277       O292   2.453       .  S
Zr277       O283   2.403       .  S
Zr277       O284   2.426       .  S
Zr277       O285   2.384       .  S
Zr277       O286   2.385       .  S
Zr278       O297   2.436       .  S
Zr278       O290   2.435       .  S
Zr278       O291   2.413       .  S
Zr278       O284   2.403       .  S
Zr278       O285   2.396       .  S
Zr279       O281   2.437       .  S
Zr279       O303   2.441       .  S
Zr279       O305   2.434       .  S
Zr279       O283   2.385       .  S
Zr279       O286   2.395       .  S
Zr280       O306   2.435       .  S
Zr280       O307   2.435       .  S
Zr280       O282   2.437       .  S
Zr280       O283   2.395       .  S
Zr280       O284   2.415       .  S
O281        H318   0.990       .  S
O282        H313   0.990       .  S
O282        H327   0.990       .  S
O284        H310   0.967       .  S
O285       Zr295   2.376       .  S
O286       Zr295   2.393       .  S
O286        H311   0.966       .  S
C287       C3889   1.482       .  S
C288       C4017   1.487       .  S
C289       C3801   1.494       .  S
O290        H326   0.989       .  S
O291        C293   1.282       .  A
O292        C293   1.285       .  A
C293       C4025   1.484       .  S
O294       Zr295   2.435       .  S
O294        H323   0.990       .  S
Zr295       O298   2.434       .  S
Zr295       O299   2.440       .  S
Zr295       O300   2.397       .  S
O296        C301   1.289       .  A
O297        H314   0.990       .  S
O297        H329   0.990       .  S
O298        H315   0.990       .  S
O299        H319   0.990       .  S
O299        H328   0.990       .  S
O300        C301   1.277       .  A
C301       C3873   1.490       .  S
O302        H321   0.990       .  S
O302        H325   0.991       .  S
O303        H317   0.990       .  S
O303        H324   0.990       .  S
O304        C308   1.291       .  A
O305        C308   1.285       .  A
O306        H316   0.990       .  S
O307        H320   0.990       .  S
C308       C3785   1.497       .  S
Zr331       O332   2.440       .  S
Zr331       O333   2.451       .  S
Zr331       O334   2.479       .  S
Zr331       O337   2.451       .  S
Zr331       O339   2.387       .  S
Zr331       O340   2.388       .  S
Zr331       O341   2.411       .  S
Zr331       O342   2.420       .  S
O332        H388   0.990       .  S
O332        H396   0.990       .  S
O333        C353   1.287       .  A
O334        C355   1.293       .  A
O335       Zr345   2.422       .  S
O335        C354   1.284       .  A
O336       Zr344   2.428       .  S
O336        C355   1.284       .  A
O337        C354   1.288       .  A
O338       Zr346   2.417       .  S
O338        C353   1.281       .  A
O339       Zr344   2.398       .  S
O339       Zr346   2.388       .  S
O340       Zr345   2.391       .  S
O340       Zr346   2.368       .  S
O340        H375   0.967       .  S
O341       Zr344   2.409       .  S
O341       Zr361   2.378       .  S
O341        H378   0.964       .  S
O342       Zr345   2.400       .  S
O342       Zr361   2.400       .  S
Zr343       O368   2.442       .  S
Zr343       O362   2.432       .  S
Zr343       O370   2.453       .  S
Zr343       O358   2.447       .  S
Zr343       O349   2.406       .  S
Zr343       O350   2.407       .  S
Zr343       O351   2.379       .  S
Zr343       O352   2.388       .  S
Zr344       O363   2.437       .  S
Zr344       O356   2.434       .  S
Zr344       O357   2.435       .  S
Zr344       O350   2.394       .  S
Zr344       O351   2.388       .  S
Zr345       O347   2.437       .  S
Zr345       O369   2.435       .  S
Zr345       O371   2.443       .  S
Zr345       O349   2.387       .  S
Zr345       O352   2.390       .  S
Zr346       O372   2.435       .  S
Zr346       O373   2.436       .  S
Zr346       O348   2.436       .  S
Zr346       O349   2.400       .  S
Zr346       O350   2.391       .  S
O347        H384   0.990       .  S
O348        H379   0.991       .  S
O348        H393   0.990       .  S
O350        H376   0.966       .  S
O351       Zr361   2.377       .  S
O352       Zr361   2.365       .  S
O352        H377   0.966       .  S
C353       C3817   1.491       .  S
C354       C3977   1.491       .  S
C355       C3793   1.496       .  S
O356        H392   0.990       .  S
O357        C359   1.286       .  A
O358        C359   1.288       .  A
C359       C3961   1.490       .  S
O360       Zr361   2.439       .  S
O360        H389   0.991   1_545  S
Zr361       O364   2.440       .  S
Zr361       O365   2.441   1_545  S
Zr361       O366   2.419       .  S
O362        C367   1.285   1_545  A
O363        H380   0.990       .  S
O363        H395   0.990       .  S
O364        H381   0.990       .  S
O365        H385   0.990       .  S
O365        H394   0.990   1_565  S
O366        C367   1.282   1_545  A
C367       C3841   1.479       .  S
O368        H387   0.990       .  S
O368        H391   0.990       .  S
O369        H383   0.990       .  S
O369        H390   0.990       .  S
O370        C374   1.289       .  A
O371        C374   1.288       .  A
O372        H382   0.990       .  S
O373        H386   0.990       .  S
C374       C3769   1.496       .  S
Zr397       O398   2.441       .  S
Zr397       O399   2.424       .  S
Zr397       O400   2.430       .  S
Zr397       O403   2.430       .  S
Zr397       O405   2.382       .  S
Zr397       O406   2.380       .  S
Zr397       O407   2.401       .  S
Zr397       O408   2.395       .  S
O398        H454   0.990       .  S
O398        H462   0.990       .  S
O399        C419   1.283       .  A
O400        C421   1.284       .  A
O401       Zr411   2.421       .  S
O401        C420   1.283       .  A
O402       Zr410   2.480       .  S
O402        C421   1.293       .  A
O403        C420   1.285       .  A
O404       Zr412   2.406       .  S
O404        C419   1.280       .  A
O405       Zr410   2.397       .  S
O405       Zr412   2.370       .  S
O406       Zr411   2.389       .  S
O406       Zr412   2.379       .  S
O406        H441   0.967       .  S
O407       Zr410   2.404       .  S
O407       Zr427   2.395       .  S
O407        H444   0.966       .  S
O408       Zr411   2.391       .  S
O408       Zr427   2.389       .  S
Zr409       O434   2.442       .  S
Zr409       O428   2.440       .  S
Zr409       O436   2.448       .  S
Zr409       O424   2.410       .  S
Zr409       O415   2.383       .  S
Zr409       O416   2.421       .  S
Zr409       O417   2.385       .  S
Zr409       O418   2.381       .  S
Zr410       O429   2.436       .  S
Zr410       O422   2.433       .  S
Zr410       O423   2.466       .  S
Zr410       O416   2.411       .  S
Zr410       O417   2.402       .  S
Zr411       O413   2.437       .  S
Zr411       O435   2.441       .  S
Zr411       O437   2.431       .  S
Zr411       O415   2.379       .  S
Zr411       O418   2.393       .  S
Zr412       O438   2.435       .  S
Zr412       O439   2.434       .  S
Zr412       O414   2.437       .  S
Zr412       O415   2.381       .  S
Zr412       O416   2.394       .  S
O413        H450   0.990       .  S
O414        H445   0.990       .  S
O414        H459   0.990       .  S
O416        H442   0.966       .  S
O417       Zr427   2.376       .  S
O418       Zr427   2.393       .  S
O418        H443   0.967       .  S
C419       C3729   1.473       .  S
C420       C3761   1.478       .  S
C421       C3681   1.502       .  S
O422        H458   0.990       .  S
O423        C425   1.291       .  A
O424        C425   1.279       .  A
C425       C3745   1.483       .  S
O426       Zr427   2.439       .  S
O426        H455   0.990       .  S
Zr427       O430   2.438       .  S
Zr427       O431   2.440       .  S
Zr427       O432   2.408       .  S
O428        C433   1.284       .  A
O429        H446   0.990       .  S
O429        H461   0.990       .  S
O430        H447   0.990       .  S
O431        H451   0.990       .  S
O431        H460   0.990       .  S
O432        C433   1.280       .  A
C433       C3705   1.483   1_455  S
O434        H453   0.991       .  S
O434        H457   0.990       .  S
O435        H449   0.990       .  S
O435        H456   0.990       .  S
O436        C440   1.287       .  A
O437        C440   1.284       .  A
O438        H448   0.990       .  S
O439        H452   0.990       .  S
C440       C3697   1.488       .  S
Zr463       O464   2.442       .  S
Zr463       O465   2.460       .  S
Zr463       O466   2.462       .  S
Zr463       O469   2.432       .  S
Zr463       O471   2.381       .  S
Zr463       O472   2.388       .  S
Zr463       O473   2.413       .  S
Zr463       O474   2.414       .  S
O464        H520   0.990       .  S
O464        H528   0.991       .  S
O465        C485   1.288       .  A
O466        C487   1.289       .  A
O467       Zr477   2.431       .  S
O467        C486   1.285       .  A
O468       Zr476   2.419       .  S
O468        C487   1.282       .  A
O469        C486   1.285       .  A
O470       Zr478   2.407       .  S
O470        C485   1.279       .  A
O471       Zr476   2.398       .  S
O471       Zr478   2.388       .  S
O472       Zr477   2.401       .  S
O472       Zr478   2.380       .  S
O472        H507   0.966       .  S
O473       Zr476   2.401       .  S
O473       Zr493   2.391       .  S
O473        H510   0.964       .  S
O474       Zr477   2.397       .  S
O474       Zr493   2.402       .  S
Zr475       O500   2.444       .  S
Zr475       O494   2.420   1_455  S
Zr475       O502   2.416       .  S
Zr475       O490   2.422       .  S
Zr475       O481   2.397       .  S
Zr475       O482   2.399       .  S
Zr475       O483   2.373       .  S
Zr475       O484   2.380       .  S
Zr476       O495   2.436       .  S
Zr476       O488   2.435       .  S
Zr476       O489   2.420       .  S
Zr476       O482   2.395       .  S
Zr476       O483   2.383       .  S
Zr477       O479   2.435       .  S
Zr477       O501   2.434       .  S
Zr477       O503   2.460       .  S
Zr477       O481   2.392       .  S
Zr477       O484   2.390       .  S
Zr478       O504   2.437       .  S
Zr478       O505   2.436       .  S
Zr478       O480   2.438       .  S
Zr478       O481   2.398       .  S
Zr478       O482   2.378       .  S
O479        H516   0.990       .  S
O480        H511   0.990       .  S
O480        H525   0.990       .  S
O482        H508   0.965       .  S
O483       Zr493   2.369       .  S
O484       Zr493   2.368       .  S
O484        H509   0.965       .  S
C485       C3649   1.491       .  S
C486       C3633   1.487       .  S
C487       C3689   1.488       .  S
O488        H524   0.990       .  S
O489        C491   1.284       .  A
O490        C491   1.283       .  A
C491       C3609   1.473       .  S
O492       Zr493   2.440       .  S
O492        H521   0.990   1_455  S
Zr493       O496   2.440       .  S
Zr493       O497   2.438   1_455  S
Zr493       O498   2.438   1_455  S
O494        C499   1.282       .  A
O495        H512   0.990       .  S
O495        H527   0.990       .  S
O496        H513   0.990   1_455  S
O497        H517   0.990       .  S
O497        H526   0.990       .  S
O498        C499   1.286       .  A
C499       C3665   1.486       .  S
O500        H519   0.990       .  S
O500        H523   0.990       .  S
O501        H515   0.990       .  S
O501        H522   0.990       .  S
O502        C506   1.283       .  A
O503        C506   1.290       .  A
O504        H514   0.990       .  S
O505        H518   0.990       .  S
C506       C3993   1.492       .  S
Zr529       O530   2.438       .  S
Zr529       O531   2.402       .  S
Zr529       O532   2.400       .  S
Zr529       O535   2.391       .  S
Zr529       O537   2.368       .  S
Zr529       O538   2.380       .  S
Zr529       O539   2.391       .  S
Zr529       O540   2.393       .  S
O530        H586   0.990       .  S
O530        H594   0.990       .  S
O531        C551   1.279       .  A
O532        C553   1.280       .  A
O533       Zr543   2.440       .  S
O533        C552   1.285       .  A
O534       Zr542   2.446       .  S
O534        C553   1.287       .  A
O535        C552   1.278       .  A
O536       Zr544   2.451       .  S
O536        C551   1.288       .  A
O537       Zr542   2.385       .  S
O537       Zr544   2.361       .  S
O538       Zr543   2.388       .  S
O538       Zr544   2.379       .  S
O538        H573   0.964       .  S
O539       Zr542   2.397       .  S
O539       Zr559   2.392       .  S
O539        H576   0.966       .  S
O540       Zr543   2.383       .  S
O540       Zr559   2.383       .  S
Zr541       O566   2.443       .  S
Zr541       O560   2.466       .  S
Zr541       O568   2.461       .  S
Zr541       O556   2.438       .  S
Zr541       O547   2.388       .  S
Zr541       O548   2.425       .  S
Zr541       O549   2.385       .  S
Zr541       O550   2.391       .  S
Zr542       O561   2.436       .  S
Zr542       O554   2.434       .  S
Zr542       O555   2.425       .  S
Zr542       O548   2.399       .  S
Zr542       O549   2.400       .  S
Zr543       O545   2.436       .  S
Zr543       O567   2.441       .  S
Zr543       O569   2.438       .  S
Zr543       O547   2.375       .  S
Zr543       O550   2.395       .  S
Zr544       O570   2.435       .  S
Zr544       O571   2.435       .  S
Zr544       O546   2.437       .  S
Zr544       O547   2.379       .  S
Zr544       O548   2.413       .  S
O545        H582   0.990       .  S
O546        H577   0.990       .  S
O546        H591   0.990       .  S
O548        H574   0.964       .  S
O549       Zr559   2.387       .  S
O550       Zr559   2.396       .  S
O550        H575   0.966       .  S
C551       C3561   1.478       .  S
C552       C3721   1.469       .  S
C553       C3553   1.481       .  S
O554        H590   0.990       .  S
O555        C557   1.284       .  A
O556        C557   1.283       .  A
C557       C3713   1.485   1_565  S
O558       Zr559   2.440       .  S
O558        H587   0.990       .  S
Zr559       O562   2.435       .  S
Zr559       O563   2.441       .  S
Zr559       O564   2.388       .  S
O560        C565   1.288       .  A
O561        H578   0.990       .  S
O561        H593   0.990       .  S
O562        H579   0.990       .  S
O563        H583   0.990       .  S
O563        H592   0.990       .  S
O564        C565   1.276       .  A
C565       C3585   1.481       .  S
O566        H585   0.991       .  S
O566        H589   0.990       .  S
O567        H581   0.990       .  S
O567        H588   0.990       .  S
O568        C572   1.290       .  A
O569        C572   1.286       .  A
O570        H580   0.990       .  S
O571        H584   0.991       .  S
C572       C3593   1.484       .  S
Zr595       O596   2.444       .  S
Zr595       O597   2.479       .  S
Zr595       O598   2.460       .  S
Zr595       O601   2.420       .  S
Zr595       O603   2.383       .  S
Zr595       O604   2.384       .  S
Zr595       O605   2.417       .  S
Zr595       O606   2.423       .  S
O596        H652   0.990       .  S
O596        H660   0.991       .  S
O597        C617   1.292       .  A
O598        C619   1.288       .  A
O599       Zr609   2.451       .  S
O599        C618   1.288       .  A
O600       Zr608   2.426       .  S
O600        C619   1.283       .  A
O601        C618   1.282       .  A
O602       Zr610   2.389       .  S
O602        C617   1.276       .  A
O603       Zr608   2.402       .  S
O603       Zr610   2.393       .  S
O604       Zr609   2.391       .  S
O604       Zr610   2.380       .  S
O604        H639   0.965       .  S
O605       Zr608   2.402       .  S
O605       Zr625   2.385       .  S
O605        H642   0.964       .  S
O606       Zr609   2.391       .  S
O606       Zr625   2.410       .  S
Zr607       O632   2.443       .  S
Zr607       O626   2.413       .  S
Zr607       O634   2.415       .  S
Zr607       O622   2.442       .  S
Zr607       O613   2.399       .  S
Zr607       O614   2.391       .  S
Zr607       O615   2.376       .  S
Zr607       O616   2.389       .  S
Zr608       O627   2.438       .  S
Zr608       O620   2.434       .  S
Zr608       O621   2.428       .  S
Zr608       O614   2.395       .  S
Zr608       O615   2.390       .  S
Zr609       O611   2.436       .  S
Zr609       O633   2.437       .  S
Zr609       O635   2.438       .  S
Zr609       O613   2.400       .  S
Zr609       O616   2.395       .  S
Zr610       O636   2.437       .  S
Zr610       O637   2.434       .  S
Zr610       O612   2.439       .  S
Zr610       O613   2.390       .  S
Zr610       O614   2.378       .  S
O611        H648   0.990       .  S
O612        H643   0.990       .  S
O612        H657   0.990       .  S
O614        H640   0.965       .  S
O615       Zr625   2.373       .  S
O616       Zr625   2.357       .  S
O616        H641   0.966       .  S
C617       C3513   1.493       .  S
C618       C3641   1.487       .  S
C619       C3601   1.486       .  S
O620        H656   0.990       .  S
O621        C623   1.285       .  A
O622        C623   1.287       .  A
C623       C3657   1.486       .  S
O624       Zr625   2.439       .  S
O624        H653   0.990       .  S
Zr625       O628   2.438       .  S
Zr625       O629   2.440       .  S
Zr625       O630   2.448       .  S
O626        C631   1.281       .  A
O627        H644   0.990       .  S
O627        H659   0.990       .  S
O628        H645   0.990       .  S
O629        H649   0.990       .  S
O629        H658   0.990       .  S
O630        C631   1.288       .  A
C631       C3529   1.487       .  S
O632        H651   0.990       .  S
O632        H655   0.990       .  S
O633        H647   0.990       .  S
O633        H654   0.990       .  S
O634        C638   1.283       .  A
O635        C638   1.286       .  A
O636        H646   0.990       .  S
O637        H650   0.990       .  S
C638       C3849   1.479       .  S
Zr661       O662   2.439       .  S
Zr661       O663   2.408       .  S
Zr661       O664   2.456       .  S
Zr661       O667   2.459       .  S
Zr661       O669   2.386       .  S
Zr661       O670   2.389       .  S
Zr661       O671   2.403       .  S
Zr661       O672   2.397       .  S
O662        H718   0.990       .  S
O662        H726   0.990       .  S
O663        C683   1.280       .  A
O664        C685   1.290       .  A
O665       Zr675   2.401       .  S
O665        C684   1.280       .  A
O666       Zr674   2.428       .  S
O666        C685   1.285       .  A
O667        C684   1.290       .  A
O668       Zr676   2.442       .  S
O668        C683   1.286       .  A
O669       Zr674   2.391       .  S
O669       Zr676   2.358       .  S
O670       Zr675   2.393       .  S
O670       Zr676   2.377       .  S
O670        H705   0.966       .  S
O671       Zr674   2.408       .  S
O671       Zr691   2.396       .  S
O671        H708   0.966       .  S
O672       Zr675   2.393       .  S
O672       Zr691   2.378       .  S
Zr673       O698   2.442       .  S
Zr673       O692   2.481       .  S
Zr673       O700   2.468       .  S
Zr673       O688   2.416       .  S
Zr673       O679   2.394       .  S
Zr673       O680   2.430       .  S
Zr673       O681   2.382       .  S
Zr673       O682   2.382       .  S
Zr674       O693   2.434       .  S
Zr674       O686   2.435       .  S
Zr674       O687   2.449       .  S
Zr674       O680   2.395       .  S
Zr674       O681   2.389       .  S
Zr675       O677   2.435       .  S
Zr675       O699   2.441       .  S
Zr675       O701   2.427       .  S
Zr675       O679   2.368       .  S
Zr675       O682   2.391       .  S
Zr676       O702   2.435       .  S
Zr676       O703   2.435       .  S
Zr676       O678   2.437       .  S
Zr676       O679   2.388       .  S
Zr676       O680   2.410       .  S
O677        H714   0.990       .  S
O678        H709   0.990       .  S
O678        H723   0.990       .  S
O680        H706   0.964       .  S
O681       Zr691   2.386       .  S
O682       Zr691   2.397       .  S
O682        H707   0.967       .  S
C683       C3753   1.482       .  S
C684       C3569   1.482       .  S
C685       C3489   1.493       .  S
O686        H722   0.990       .  S
O687        C689   1.288       .  A
O688        C689   1.280       .  A
C689       C3577   1.477       .  S
O690       Zr691   2.439       .  S
O690        H719   0.990       .  S
Zr691       O694   2.438       .  S
Zr691       O695   2.439       .  S
Zr691       O696   2.389       .  S
O692        C697   1.291       .  A
O693        H710   0.990       .  S
O693        H725   0.990       .  S
O694        H711   0.990       .  S
O695        H715   0.990       .  S
O695        H724   0.990       .  S
O696        C697   1.276       .  A
C697       C3737   1.487   1_565  S
O698        H717   0.991       .  S
O698        H721   0.990       .  S
O699        H713   0.990       .  S
O699        H720   0.990       .  S
O700        C704   1.290       .  A
O701        C704   1.283       .  A
O702        H712   0.990       .  S
O703        H716   0.990       .  S
C704       C3497   1.483       .  S
Zr727       O728   2.443       .  S
Zr727       O729   2.462       .  S
Zr727       O730   2.469       .  S
Zr727       O733   2.420       .  S
Zr727       O735   2.377       .  S
Zr727       O736   2.391       .  S
Zr727       O737   2.414       .  S
Zr727       O738   2.418       .  S
O728        H784   0.990       .  S
O728        H792   0.991       .  S
O729        C749   1.288       .  A
O730        C751   1.290       .  A
O731       Zr741   2.448       .  S
O731        C750   1.288       .  A
O732       Zr740   2.438       .  S
O732        C751   1.285       .  A
O733        C750   1.282       .  A
O734       Zr742   2.397       .  S
O734        C749   1.277       .  A
O735       Zr740   2.393       .  S
O735       Zr742   2.392       .  S
O736       Zr741   2.393       .  S
O736       Zr742   2.376       .  S
O736        H771   0.966       .  S
O737       Zr740   2.397       .  S
O737       Zr757   2.369       .  S
O737        H774   0.962       .  S
O738       Zr741   2.393       .  S
O738       Zr757   2.392       .  S
Zr739       O764   2.440       .  S
Zr739       O758   2.426       .  S
Zr739       O766   2.445       .  S
Zr739       O754   2.467       .  S
Zr739       O745   2.410       .  S
Zr739       O746   2.403       .  S
Zr739       O747   2.378       .  S
Zr739       O748   2.389       .  S
Zr740       O759   2.437       .  S
Zr740       O752   2.434       .  S
Zr740       O753   2.415       .  S
Zr740       O746   2.403       .  S
Zr740       O747   2.396       .  S
Zr741       O743   2.435       .  S
Zr741       O765   2.436       .  S
Zr741       O767   2.445       .  S
Zr741       O745   2.399       .  S
Zr741       O748   2.392       .  S
Zr742       O768   2.438       .  S
Zr742       O769   2.435       .  S
Zr742       O744   2.437       .  S
Zr742       O745   2.396       .  S
Zr742       O746   2.385       .  S
O743        H780   0.990       .  S
O744        H775   0.990       .  S
O744        H789   0.990       .  S
O746        H772   0.964       .  S
O747       Zr757   2.383       .  S
O748       Zr757   2.361       .  S
O748        H773   0.966       .  S
C749       C3625   1.487       .  S
C750       C3521   1.488       .  S
C751       C3505   1.487       .  S
O752        H788   0.990   1_455  S
O753        C755   1.282       .  A
O754        C755   1.290       .  A
C755       C3537   1.491   1_455  S
O756       Zr757   2.439       .  S
O756        H785   0.990       .  S
Zr757       O760   2.437       .  S
Zr757       O761   2.440       .  S
Zr757       O762   2.407       .  S
O758        C763   1.283       .  A
O759        H776   0.990       .  S
O759        H791   0.990       .  S
O760        H777   0.990       .  S
O761        H781   0.990       .  S
O761        H790   0.990       .  S
O762        C763   1.280       .  A
C763       C3617   1.477   1_565  S
O764        H783   0.990       .  S
O764        H787   0.991       .  S
O765        H779   0.990       .  S
O765        H786   0.990       .  S
O766        C770   1.288       .  A
O767        C770   1.288       .  A
O768        H778   0.990       .  S
O769        H782   0.990       .  S
C770       C3777   1.496       .  S
Zr793       O794   2.439       .  S
Zr793       O795   2.409       .  S
Zr793       O796   2.431       .  S
Zr793       O799   2.446       .  S
Zr793       O801   2.386       .  S
Zr793       O802   2.382       .  S
Zr793       O803   2.398       .  S
Zr793       O804   2.390       .  S
O794        H850   0.990       .  S
O794        H858   0.990       .  S
O795        C815   1.280       .  A
O796        C817   1.286       .  A
O797       Zr807   2.407       .  S
O797        C816   1.281       .  A
O798       Zr806   2.447       .  S
O798        C817   1.288       .  A
O799        C816   1.288       .  A
O800       Zr808   2.434       .  S
O800        C815   1.286       .  A
O801       Zr806   2.391       .  S
O801       Zr808   2.363       .  S
O802       Zr807   2.393       .  S
O802       Zr808   2.380       .  S
O802        H837   0.967       .  S
O803       Zr806   2.398       .  S
O803       Zr823   2.387       .  S
O803        H840   0.965       .  S
O804       Zr807   2.381       .  S
O804       Zr823   2.375       .  S
Zr805       O830   2.441       .  S
Zr805       O824   2.467       .  S
Zr805       O832   2.471       .  S
Zr805       O820   2.431       .  S
Zr805       O811   2.386       .  S
Zr805       O812   2.427       .  S
Zr805       O813   2.388       .  S
Zr805       O814   2.388       .  S
Zr806       O825   2.435       .  S
Zr806       O818   2.434       .  S
Zr806       O819   2.438       .  S
Zr806       O812   2.401       .  S
Zr806       O813   2.389       .  S
Zr807       O809   2.436       .  S
Zr807       O831   2.439       .  S
Zr807       O833   2.416       .  S
Zr807       O811   2.374       .  S
Zr807       O814   2.386       .  S
Zr808       O834   2.434       .  S
Zr808       O835   2.436       .  S
Zr808       O810   2.436       .  S
Zr808       O811   2.380       .  S
Zr808       O812   2.408       .  S
O809        H846   0.990       .  S
O810        H841   0.990       .  S
O810        H855   0.990       .  S
O812        H838   0.965       .  S
O813       Zr823   2.380       .  S
O814       Zr823   2.396       .  S
O814        H839   0.967       .  S
C815       C3449   1.480       .  S
C816       C3425   1.480       .  S
C817       C3809   1.492       .  S
O818        H854   0.990       .  S
O819        C821   1.286       .  A
O820        C821   1.283       .  A
C821       C3401   1.484       .  S
O822       Zr823   2.439       .  S
O822        H851   0.990       .  S
Zr823       O826   2.436       .  S
Zr823       O827   2.439       .  S
Zr823       O828   2.379       .  S
O824        C829   1.289       .  A
O825        H842   0.990       .  S
O825        H857   0.990       .  S
O826        H843   0.990       .  S
O827        H847   0.990       .  S
O827        H856   0.989       .  S
O828        C829   1.276       .  A
C829       C3433   1.486       .  S
O830        H849   0.991       .  S
O830        H853   0.990       .  S
O831        H845   0.990       .  S
O831        H852   0.990       .  S
O832        C836   1.291       .  A
O833        C836   1.282       .  A
O834        H844   0.990       .  S
O835        H848   0.990       .  S
C836       C3473   1.485       .  S
Zr859       O860   2.443       .  S
Zr859       O861   2.461       .  S
Zr859       O862   2.475       .  S
Zr859       O865   2.407       .  S
Zr859       O867   2.374       .  S
Zr859       O868   2.397       .  S
Zr859       O869   2.408       .  S
Zr859       O870   2.426       .  S
O860        H916   0.990       .  S
O860        H924   0.991       .  S
O861        C881   1.288       .  A
O862        C883   1.291       .  A
O863       Zr873   2.464       .  S
O863        C882   1.291       .  A
O864       Zr872   2.423       .  S
O864        C883   1.281       .  A
O865        C882   1.280       .  A
O866       Zr874   2.391       .  S
O866        C881   1.276       .  A
O867       Zr872   2.392       .  S
O867       Zr874   2.393       .  S
O868       Zr873   2.402       .  S
O868       Zr874   2.373       .  S
O868        H903   0.967       .  S
O869       Zr872   2.394       .  S
O869       Zr889   2.371       .  S
O869        H906   0.963       .  S
O870       Zr873   2.398       .  S
O870       Zr889   2.391       .  S
Zr871       O896   2.449       .  S
Zr871       O890   2.427       .  S
Zr871       O898   2.420       .  S
Zr871       O886   2.452       .  S
Zr871       O877   2.405       .  S
Zr871       O878   2.395       .  S
Zr871       O879   2.370       .  S
Zr871       O880   2.397       .  S
Zr872       O891   2.438       .  S
Zr872       O884   2.434       .  S
Zr872       O885   2.408       .  S
Zr872       O878   2.393       .  S
Zr872       O879   2.386       .  S
Zr873       O875   2.435       .  S
Zr873       O897   2.436       .  S
Zr873       O899   2.469       .  S
Zr873       O877   2.400       .  S
Zr873       O880   2.392       .  S
Zr874       O900   2.434       .  S
Zr874       O901   2.435       .  S
Zr874       O876   2.438       .  S
Zr874       O877   2.387       .  S
Zr874       O878   2.383       .  S
O875        H912   0.990       .  S
O876        H907   0.991       .  S
O876        H921   0.990       .  S
O878        H904   0.966       .  S
O879       Zr889   2.379       .  S
O880       Zr889   2.363       .  S
O880        H905   0.967       .  S
C881       C3353   1.485       .  S
C882       C3329   1.488       .  S
C883       C3465   1.484       .  S
O884        H920   0.990       .  S
O885        C887   1.281       .  A
O886        C887   1.288       .  A
C887       C3337   1.483       .  S
O888       Zr889   2.438       .  S
O888        H917   0.990       .  S
Zr889       O892   2.437       .  S
Zr889       O893   2.440       .  S
Zr889       O894   2.406       .  S
O890        C895   1.284       .  A
O891        H908   0.990       .  S
O891        H923   0.990       .  S
O892        H909   0.990       .  S
O893        H913   0.990       .  S
O893        H922   0.990       .  S
O894        C895   1.280       .  A
C895       C3369   1.476       .  S
O896        H915   0.990       .  S
O896        H919   0.990       .  S
O897        H911   0.990       .  S
O897        H918   0.990       .  S
O898        C902   1.284       .  A
O899        C902   1.292       .  A
O900        H910   0.990       .  S
O901        H914   0.990       .  S
C902       C3385   1.489       .  S
Zr925       O926   2.436       .  S
Zr925       O927   2.403       .  S
Zr925       O928   2.454       .  S
Zr925       O931   2.455       .  S
Zr925       O933   2.384       .  S
Zr925       O934   2.389       .  S
Zr925       O935   2.404   1_545  S
Zr925       O936   2.395       .  S
O926        H982   0.990       .  S
O926        H990   0.990       .  S
O927        C947   1.279       .  A
O928        C949   1.289       .  A
O929       Zr939   2.395       .  S
O929        C948   1.279       .  A
O930       Zr938   2.428       .  S
O930        C949   1.285   1_565  A
O931        C948   1.290       .  A
O932       Zr940   2.449       .  S
O932        C947   1.288       .  A
O933       Zr938   2.388   1_545  S
O933       Zr940   2.362       .  S
O934       Zr939   2.390       .  S
O934       Zr940   2.374       .  S
O934        H969   0.967       .  S
O935       Zr938   2.394       .  S
O935       Zr955   2.395       .  S
O935        H972   0.965       .  S
O936       Zr939   2.386       .  S
O936       Zr955   2.378   1_545  S
Zr937       O962   2.444       .  S
Zr937       O956   2.481       .  S
Zr937       O964   2.467       .  S
Zr937       O952   2.426       .  S
Zr937       O943   2.398       .  S
Zr937       O944   2.430       .  S
Zr937       O945   2.386       .  S
Zr937       O946   2.382       .  S
Zr938       O957   2.435       .  S
Zr938       O950   2.435       .  S
Zr938       O951   2.425       .  S
Zr938       O944   2.396       .  S
Zr938       O945   2.387       .  S
Zr939       O941   2.437       .  S
Zr939       O963   2.439       .  S
Zr939       O965   2.409       .  S
Zr939       O943   2.380   1_545  S
Zr939       O946   2.383   1_545  S
Zr940       O966   2.435       .  S
Zr940       O967   2.436       .  S
Zr940       O942   2.437       .  S
Zr940       O943   2.394   1_545  S
Zr940       O944   2.410   1_545  S
O941        H978   0.990       .  S
O942        H973   0.990       .  S
O942        H987   0.990       .  S
O944        H970   0.965       .  S
O945       Zr955   2.383       .  S
O946       Zr955   2.394       .  S
O946        H971   0.965       .  S
C947       C3305   1.480       .  S
C948       C3457   1.478       .  S
C949       C4097   1.493       .  S
O950        H986   0.990       .  S
O951        C953   1.284       .  A
O952        C953   1.282       .  A
C953       C3441   1.479       .  S
O954       Zr955   2.438       .  S
O954        H983   0.990       .  S
Zr955       O958   2.436       .  S
Zr955       O959   2.439       .  S
Zr955       O960   2.389       .  S
O956        C961   1.291       .  A
O957        H974   0.990       .  S
O957        H989   0.990       .  S
O958        H975   0.990       .  S
O959        H979   0.990       .  S
O959        H988   0.990       .  S
O960        C961   1.277       .  A
C961       C3289   1.485       .  S
O962        H981   0.991       .  S
O962        H985   0.991       .  S
O963        H977   0.990       .  S
O963        H984   0.990       .  S
O964        C968   1.289       .  A
O965        C968   1.280   1_545  A
O966        H976   0.990       .  S
O967        H980   0.990   1_545  S
C968       C3273   1.481       .  S
Zr991       O992   2.444       .  S
Zr991       O993   2.470       .  S
Zr991       O994   2.457       .  S
Zr991       O997   2.425       .  S
Zr991       O999   2.380   1_545  S
Zr991      O1000   2.385       .  S
Zr991      O1001   2.419   1_545  S
Zr991      O1002   2.422       .  S
O992       H1048   0.990       .  S
O992       H1056   0.990       .  S
O993       C1013   1.289       .  A
O994       C1015   1.288   1_545  A
O995      Zr1005   2.447       .  S
O995       C1014   1.288       .  A
O996      Zr1004   2.422       .  S
O996       C1015   1.281       .  A
O997       C1014   1.283       .  A
O998      Zr1006   2.384   1_545  S
O998       C1013   1.275       .  A
O999      Zr1004   2.398       .  S
O999      Zr1006   2.387       .  S
O1000     Zr1005   2.398       .  S
O1000     Zr1006   2.374   1_545  S
O1000      H1035   0.967       .  S
O1001     Zr1004   2.408       .  S
O1001     Zr1021   2.387       .  S
O1001      H1038   0.964       .  S
O1002     Zr1005   2.400       .  S
O1002     Zr1021   2.406   1_545  S
Zr1003     O1028   2.444       .  S
Zr1003     O1022   2.414       .  S
Zr1003     O1030   2.405       .  S
Zr1003     O1018   2.411       .  S
Zr1003     O1009   2.391       .  S
Zr1003     O1010   2.391       .  S
Zr1003     O1011   2.371       .  S
Zr1003     O1012   2.382       .  S
Zr1004     O1023   2.440       .  S
Zr1004     O1016   2.435       .  S
Zr1004     O1017   2.436       .  S
Zr1004     O1010   2.390       .  S
Zr1004     O1011   2.384       .  S
Zr1005     O1007   2.435       .  S
Zr1005     O1029   2.437       .  S
Zr1005     O1031   2.455   1_545  S
Zr1005     O1009   2.394   1_545  S
Zr1005     O1012   2.390   1_545  S
Zr1006     O1032   2.437   1_565  S
Zr1006     O1033   2.436       .  S
Zr1006     O1008   2.436       .  S
Zr1006     O1009   2.384       .  S
Zr1006     O1010   2.383       .  S
O1007      H1044   0.990       .  S
O1008      H1039   0.990   1_565  S
O1008      H1053   0.990       .  S
O1010      H1036   0.966       .  S
O1011     Zr1021   2.370       .  S
O1012     Zr1021   2.365       .  S
O1012      H1037   0.967       .  S
C1013      C3249   1.489       .  S
C1014      C3361   1.489       .  S
C1015      C3281   1.479       .  S
O1016      H1052   0.990       .  S
O1017      C1019   1.286       .  A
O1018      C1019   1.281       .  A
C1019      C3377   1.475       .  S
O1020     Zr1021   2.439       .  S
O1020      H1049   0.991       .  S
Zr1021     O1024   2.437       .  S
Zr1021     O1025   2.440       .  S
Zr1021     O1026   2.437       .  S
O1022      C1027   1.281       .  A
O1023      H1040   0.990       .  S
O1023      H1055   0.990       .  S
O1024      H1041   0.990       .  S
O1025      H1045   0.990       .  S
O1025      H1054   0.989       .  S
O1026      C1027   1.286       .  A
C1027      C3225   1.481       .  S
O1028      H1047   0.990       .  S
O1028      H1051   0.990       .  S
O1029      H1043   0.990       .  S
O1029      H1050   0.990       .  S
O1030      C1034   1.281       .  A
O1031      C1034   1.290       .  A
O1032      H1042   0.990       .  S
O1033      H1046   0.990       .  S
C1034      C3265   1.478       .  S
Zr1057     O1058   2.438       .  S
Zr1057     O1059   2.402       .  S
Zr1057     O1060   2.455       .  S
Zr1057     O1063   2.461       .  S
Zr1057     O1065   2.389       .  S
Zr1057     O1066   2.391       .  S
Zr1057     O1067   2.404       .  S
Zr1057     O1068   2.390       .  S
O1058      H1114   0.990       .  S
O1058      H1122   0.990       .  S
O1059      C1079   1.279       .  A
O1060      C1081   1.289       .  A
O1061     Zr1071   2.398       .  S
O1061      C1080   1.279       .  A
O1062     Zr1070   2.451   1_655  S
O1062      C1081   1.290       .  A
O1063      C1080   1.291       .  A
O1064     Zr1072   2.443       .  S
O1064      C1079   1.287       .  A
O1065     Zr1070   2.389   1_655  S
O1065     Zr1072   2.364       .  S
O1066     Zr1071   2.390       .  S
O1066     Zr1072   2.378       .  S
O1066      H1101   0.966       .  S
O1067     Zr1070   2.403   1_655  S
O1067     Zr1087   2.397       .  S
O1067      H1104   0.965       .  S
O1068     Zr1071   2.388       .  S
O1068     Zr1087   2.377       .  S
Zr1069     O1094   2.442       .  S
Zr1069     O1088   2.465       .  S
Zr1069     O1096   2.462       .  S
Zr1069     O1084   2.430       .  S
Zr1069     O1075   2.394   1_455  S
Zr1069     O1076   2.428       .  S
Zr1069     O1077   2.384       .  S
Zr1069     O1078   2.379   1_455  S
Zr1070     O1089   2.435       .  S
Zr1070     O1082   2.434       .  S
Zr1070     O1083   2.454       .  S
Zr1070     O1076   2.402       .  S
Zr1070     O1077   2.396       .  S
Zr1071     O1073   2.435       .  S
Zr1071     O1095   2.440       .  S
Zr1071     O1097   2.429       .  S
Zr1071     O1075   2.374       .  S
Zr1071     O1078   2.387       .  S
Zr1072     O1098   2.435       .  S
Zr1072     O1099   2.436       .  S
Zr1072     O1074   2.437       .  S
Zr1072     O1075   2.389       .  S
Zr1072     O1076   2.413   1_655  S
O1073      H1110   0.990       .  S
O1074      H1105   0.990       .  S
O1074      H1119   0.990       .  S
O1076      H1102   0.965       .  S
O1077     Zr1087   2.380   1_455  S
O1078     Zr1087   2.395       .  S
O1078      H1103   0.966       .  S
C1079      C3417   1.479       .  S
C1080      C3313   1.478       .  S
C1081      C3913   1.502       .  S
O1082      H1118   0.990       .  S
O1083      C1085   1.288       .  A
O1084      C1085   1.282       .  A
C1085      C3297   1.482       .  S
O1086     Zr1087   2.440       .  S
O1086      H1115   0.990       .  S
Zr1087     O1090   2.436   1_655  S
Zr1087     O1091   2.441       .  S
Zr1087     O1092   2.393   1_655  S
O1088      C1093   1.289       .  A
O1089      H1106   0.990       .  S
O1089      H1121   0.990       .  S
O1090      H1107   0.990       .  S
O1091      H1111   0.990       .  S
O1091      H1120   0.990       .  S
O1092      C1093   1.278       .  A
C1093      C3409   1.486       .  S
O1094      H1113   0.990       .  S
O1094      H1117   0.990       .  S
O1095      H1109   0.990       .  S
O1095      H1116   0.990       .  S
O1096      C1100   1.290   1_455  A
O1097      C1100   1.284       .  A
O1098      H1108   0.990       .  S
O1099      H1112   0.991       .  S
C1100      C3209   1.488       .  S
Zr1123     O1124   2.443       .  S
Zr1123     O1125   2.480       .  S
Zr1123     O1126   2.473       .  S
Zr1123     O1129   2.414       .  S
Zr1123     O1131   2.374       .  S
Zr1123     O1132   2.391       .  S
Zr1123     O1133   2.414       .  S
Zr1123     O1134   2.428       .  S
O1124      H1180   0.990       .  S
O1124      H1188   0.991       .  S
O1125      C1145   1.292       .  A
O1126      C1147   1.290       .  A
O1127     Zr1137   2.455       .  S
O1127      C1146   1.290       .  A
O1128     Zr1136   2.436   1_655  S
O1128      C1147   1.285       .  A
O1129      C1146   1.280       .  A
O1130     Zr1138   2.382       .  S
O1130      C1145   1.275       .  A
O1131     Zr1136   2.396   1_655  S
O1131     Zr1138   2.393       .  S
O1132     Zr1137   2.399       .  S
O1132     Zr1138   2.378       .  S
O1132      H1167   0.967       .  S
O1133     Zr1136   2.394   1_655  S
O1133     Zr1153   2.380   1_655  S
O1133      H1170   0.962       .  S
O1134     Zr1137   2.396       .  S
O1134     Zr1153   2.405   1_655  S
Zr1135     O1160   2.443       .  S
Zr1135     O1154   2.410       .  S
Zr1135     O1162   2.429       .  S
Zr1135     O1150   2.450       .  S
Zr1135     O1141   2.397   1_455  S
Zr1135     O1142   2.394       .  S
Zr1135     O1143   2.377       .  S
Zr1135     O1144   2.390       .  S
Zr1136     O1155   2.436       .  S
Zr1136     O1148   2.435       .  S
Zr1136     O1149   2.418       .  S
Zr1136     O1142   2.398       .  S
Zr1136     O1143   2.389       .  S
Zr1137     O1139   2.435       .  S
Zr1137     O1161   2.436       .  S
Zr1137     O1163   2.465       .  S
Zr1137     O1141   2.392       .  S
Zr1137     O1144   2.392   1_655  S
Zr1138     O1164   2.436       .  S
Zr1138     O1165   2.436       .  S
Zr1138     O1140   2.437       .  S
Zr1138     O1141   2.387       .  S
Zr1138     O1142   2.374   1_655  S
O1139      H1176   0.990       .  S
O1140      H1171   0.990       .  S
O1140      H1185   0.990       .  S
O1142      H1168   0.965       .  S
O1143     Zr1153   2.373       .  S
O1144     Zr1153   2.363       .  S
O1144      H1169   0.967       .  S
C1145      C3321   1.488       .  S
C1146      C3241   1.488       .  S
C1147      C3217   1.488       .  S
O1148      H1184   0.990       .  S
O1149      C1151   1.284       .  A
O1150      C1151   1.288       .  A
C1151      C3233   1.481       .  S
O1152     Zr1153   2.439   1_655  S
O1152      H1181   0.990       .  S
Zr1153     O1156   2.438       .  S
Zr1153     O1157   2.439   1_455  S
Zr1153     O1158   2.442       .  S
O1154      C1159   1.281       .  A
O1155      H1172   0.990       .  S
O1155      H1187   0.990       .  S
O1156      H1173   0.990       .  S
O1157      H1177   0.990   1_655  S
O1157      H1186   0.990       .  S
O1158      C1159   1.286       .  A
C1159      C3345   1.484       .  S
O1160      H1179   0.990       .  S
O1160      H1183   0.990       .  S
O1161      H1175   0.990       .  S
O1161      H1182   0.990       .  S
O1162      C1166   1.286       .  A
O1163      C1166   1.292   1_655  A
O1164      H1174   0.990       .  S
O1165      H1178   0.989   1_655  S
C1166      C3193   1.497       .  S
Zr1189     O1190   2.442       .  S
Zr1189     O1191   2.421       .  S
Zr1189     O1192   2.417       .  S
Zr1189     O1195   2.416       .  S
Zr1189     O1197   2.377       .  S
Zr1189     O1198   2.381       .  S
Zr1189     O1199   2.396       .  S
Zr1189     O1200   2.389       .  S
O1190      H1246   0.990       .  S
O1190      H1254   0.990       .  S
O1191      C1211   1.282       .  A
O1192      C1213   1.282       .  A
O1193     Zr1203   2.419       .  S
O1193      C1212   1.283       .  A
O1194     Zr1202   2.458       .  S
O1194      C1213   1.289       .  A
O1195      C1212   1.282       .  A
O1196     Zr1204   2.436       .  S
O1196      C1211   1.285       .  A
O1197     Zr1202   2.393       .  S
O1197     Zr1204   2.371       .  S
O1198     Zr1203   2.392       .  S
O1198     Zr1204   2.379       .  S
O1198      H1233   0.966       .  S
O1199     Zr1202   2.398       .  S
O1199     Zr1219   2.394       .  S
O1199      H1236   0.966       .  S
O1200     Zr1203   2.385       .  S
O1200     Zr1219   2.377       .  S
Zr1201     O1226   2.441       .  S
Zr1201     O1220   2.459       .  S
Zr1201     O1228   2.450       .  S
Zr1201     O1216   2.421       .  S
Zr1201     O1207   2.393       .  S
Zr1201     O1208   2.420       .  S
Zr1201     O1209   2.383       .  S
Zr1201     O1210   2.381       .  S
Zr1202     O1221   2.434       .  S
Zr1202     O1214   2.435       .  S
Zr1202     O1215   2.445       .  S
Zr1202     O1208   2.406       .  S
Zr1202     O1209   2.396       .  S
Zr1203     O1205   2.437       .  S
Zr1203     O1227   2.438       .  S
Zr1203     O1229   2.424       .  S
Zr1203     O1207   2.386       .  S
Zr1203     O1210   2.395       .  S
Zr1204     O1230   2.437       .  S
Zr1204     O1231   2.436       .  S
Zr1204     O1206   2.437       .  S
Zr1204     O1207   2.390       .  S
Zr1204     O1208   2.409       .  S
O1205      H1242   0.990       .  S
O1206      H1237   0.990       .  S
O1206      H1251   0.990       .  S
O1208      H1234   0.967       .  S
O1209     Zr1219   2.377       .  S
O1210     Zr1219   2.391       .  S
O1210      H1235   0.965       .  S
C1211      C3129   1.485       .  S
C1212      C3105   1.474       .  S
C1213      C3177   1.491       .  S
O1214      H1250   0.990       .  S
O1215      C1217   1.288       .  A
O1216      C1217   1.281       .  A
C1217      C3113   1.486       .  S
O1218     Zr1219   2.436       .  S
O1218      H1247   0.990       .  S
Zr1219     O1222   2.436       .  S
Zr1219     O1223   2.438       .  S
Zr1219     O1224   2.393       .  S
O1220      C1225   1.288       .  A
O1221      H1238   0.990       .  S
O1221      H1253   0.990       .  S
O1222      H1239   0.990       .  S
O1223      H1243   0.990       .  S
O1223      H1252   0.990       .  S
O1224      C1225   1.278       .  A
C1225      C3145   1.487       .  S
O1226      H1245   0.990       .  S
O1226      H1249   0.990       .  S
O1227      H1241   0.990       .  S
O1227      H1248   0.990       .  S
O1228      C1232   1.288       .  A
O1229      C1232   1.283       .  A
O1230      H1240   0.990       .  S
O1231      H1244   0.990       .  S
C1232      C3169   1.489       .  S
Zr1255     O1256   2.441       .  S
Zr1255     O1257   2.452       .  S
Zr1255     O1258   2.450       .  S
Zr1255     O1261   2.411       .  S
Zr1255     O1263   2.377       .  S
Zr1255     O1264   2.387       .  S
Zr1255     O1265   2.404       .  S
Zr1255     O1266   2.416       .  S
O1256      H1312   0.990       .  S
O1256      H1320   0.990       .  S
O1257      C1277   1.287       .  A
O1258      C1279   1.286       .  A
O1259     Zr1269   2.448       .  S
O1259      C1278   1.289       .  A
O1260     Zr1268   2.424       .  S
O1260      C1279   1.283       .  A
O1261      C1278   1.281       .  A
O1262     Zr1270   2.398       .  S
O1262      C1277   1.279       .  A
O1263     Zr1268   2.388       .  S
O1263     Zr1270   2.384       .  S
O1264     Zr1269   2.390       .  S
O1264     Zr1270   2.376       .  S
O1264      H1299   0.966       .  S
O1265     Zr1268   2.390       .  S
O1265     Zr1285   2.388       .  S
O1265      H1302   0.966       .  S
O1266     Zr1269   2.393       .  S
O1266     Zr1285   2.407       .  S
Zr1267     O1292   2.439       .  S
Zr1267     O1286   2.416       .  S
Zr1267     O1294   2.453       .  S
Zr1267     O1282   2.467       .  S
Zr1267     O1273   2.406       .  S
Zr1267     O1274   2.400       .  S
Zr1267     O1275   2.382       .  S
Zr1267     O1276   2.389       .  S
Zr1268     O1287   2.437       .  S
Zr1268     O1280   2.436       .  S
Zr1268     O1281   2.406       .  S
Zr1268     O1274   2.398       .  S
Zr1268     O1275   2.386       .  S
Zr1269     O1271   2.435       .  S
Zr1269     O1293   2.436       .  S
Zr1269     O1295   2.452       .  S
Zr1269     O1273   2.401       .  S
Zr1269     O1276   2.391       .  S
Zr1270     O1296   2.438       .  S
Zr1270     O1297   2.436       .  S
Zr1270     O1272   2.438       .  S
Zr1270     O1273   2.400       .  S
Zr1270     O1274   2.374       .  S
O1271      H1308   0.990   1_455  S
O1272      H1303   0.990       .  S
O1272      H1317   0.990       .  S
O1274      H1300   0.965       .  S
O1275     Zr1285   2.368       .  S
O1276     Zr1285   2.361       .  S
O1276      H1301   0.966       .  S
C1277      C3065   1.484       .  S
C1278      C3033   1.484   1_455  S
C1279      C3161   1.488       .  S
O1280      H1316   0.990       .  S
O1281      C1283   1.282       .  A
O1282      C1283   1.292       .  A
C1283      C3049   1.488       .  S
O1284     Zr1285   2.439       .  S
O1284      H1313   0.990       .  S
Zr1285     O1288   2.437       .  S
Zr1285     O1289   2.439       .  S
Zr1285     O1290   2.441       .  S
O1286      C1291   1.282       .  A
O1287      H1304   0.990       .  S
O1287      H1319   0.990       .  S
O1288      H1305   0.990       .  S
O1289      H1309   0.990       .  S
O1289      H1318   0.990       .  S
O1290      C1291   1.287       .  A
C1291      C3081   1.482       .  S
O1292      H1311   0.990       .  S
O1292      H1315   0.990       .  S
O1293      H1307   0.990       .  S
O1293      H1314   0.990       .  S
O1294      C1298   1.291       .  A
O1295      C1298   1.289       .  A
O1296      H1306   0.990       .  S
O1297      H1310   0.990       .  S
C1298      C3201   1.497       .  S
Zr1321     O1322   2.438       .  S
Zr1321     O1323   2.415       .  S
Zr1321     O1324   2.461       .  S
Zr1321     O1327   2.455       .  S
Zr1321     O1329   2.384       .  S
Zr1321     O1330   2.388       .  S
Zr1321     O1331   2.401       .  S
Zr1321     O1332   2.392       .  S
O1322      H1378   0.990       .  S
O1322      H1386   0.990       .  S
O1323      C1343   1.281       .  A
O1324      C1345   1.290       .  A
O1325     Zr1335   2.407       .  S
O1325      C1344   1.281       .  A
O1326     Zr1334   2.390       .  S
O1326      C1345   1.278       .  A
O1327      C1344   1.290       .  A
O1328     Zr1336   2.441       .  S
O1328      C1343   1.286       .  A
O1329     Zr1334   2.391       .  S
O1329     Zr1336   2.361       .  S
O1330     Zr1335   2.391       .  S
O1330     Zr1336   2.378       .  S
O1330      H1365   0.966       .  S
O1331     Zr1334   2.400       .  S
O1331     Zr1351   2.390       .  S
O1331      H1368   0.966       .  S
O1332     Zr1335   2.395       .  S
O1332     Zr1351   2.378       .  S
Zr1333     O1358   2.441       .  S
Zr1333     O1352   2.468       .  S
Zr1333     O1360   2.457       .  S
Zr1333     O1348   2.432       .  S
Zr1333     O1339   2.391       .  S
Zr1333     O1340   2.426       .  S
Zr1333     O1341   2.378       .  S
Zr1333     O1342   2.386       .  S
Zr1334     O1353   2.435       .  S
Zr1334     O1346   2.435       .  S
Zr1334     O1347   2.421       .  S
Zr1334     O1340   2.391       .  S
Zr1334     O1341   2.380       .  S
Zr1335     O1337   2.436       .  S
Zr1335     O1359   2.441       .  S
Zr1335     O1361   2.432       .  S
Zr1335     O1339   2.368       .  S
Zr1335     O1342   2.395       .  S
Zr1336     O1362   2.435       .  S
Zr1336     O1363   2.434       .  S
Zr1336     O1338   2.438       .  S
Zr1336     O1339   2.382       .  S
Zr1336     O1340   2.417       .  S
O1337      H1374   0.990       .  S
O1338      H1369   0.990       .  S
O1338      H1383   0.990       .  S
O1340      H1366   0.966       .  S
O1341     Zr1351   2.378       .  S
O1342     Zr1351   2.398       .  S
O1342      H1367   0.966       .  S
C1343      C2993   1.478       .  S
C1344      C3137   1.484   1_565  S
C1345      C3017   1.481       .  S
O1346      H1382   0.990       .  S
O1347      C1349   1.283       .  A
O1348      C1349   1.282       .  A
C1349      C3153   1.481       .  S
O1350     Zr1351   2.440       .  S
O1350      H1379   0.991       .  S
Zr1351     O1354   2.441       .  S
Zr1351     O1355   2.437       .  S
Zr1351     O1356   2.379       .  S
O1352      C1357   1.289       .  A
O1353      H1370   0.990       .  S
O1353      H1385   0.990       .  S
O1354      H1371   0.990       .  S
O1355      H1375   0.990       .  S
O1355      H1384   0.990       .  S
O1356      C1357   1.274       .  A
C1357      C2977   1.485       .  S
O1358      H1377   0.991       .  S
O1358      H1381   0.990       .  S
O1359      H1373   0.990       .  S
O1359      H1380   0.990       .  S
O1360      C1364   1.289       .  A
O1361      C1364   1.285       .  A
O1362      H1372   0.990       .  S
O1363      H1376   0.990       .  S
C1364      C3001   1.488       .  S
Zr1387     O1388   2.444       .  S
Zr1387     O1389   2.464       .  S
Zr1387     O1390   2.442       .  S
Zr1387     O1393   2.417       .  S
Zr1387     O1395   2.379       .  S
Zr1387     O1396   2.383       .  S
Zr1387     O1397   2.414       .  S
Zr1387     O1398   2.419       .  S
O1388      H1444   0.991       .  S
O1388      H1452   0.991       .  S
O1389      C1409   1.289       .  A
O1390      C1411   1.285       .  A
O1391     Zr1401   2.432       .  S
O1391      C1410   1.285       .  A
O1392     Zr1400   2.432       .  S
O1392      C1411   1.284       .  A
O1393      C1410   1.281       .  A
O1394     Zr1402   2.389       .  S
O1394      C1409   1.277       .  A
O1395     Zr1400   2.388       .  S
O1395     Zr1402   2.390       .  S
O1396     Zr1401   2.382       .  S
O1396     Zr1402   2.374       .  S
O1396      H1431   0.966       .  S
O1397     Zr1400   2.395       .  S
O1397     Zr1417   2.391       .  S
O1397      H1434   0.964       .  S
O1398     Zr1401   2.387       .  S
O1398     Zr1417   2.413       .  S
Zr1399     O1424   2.440       .  S
Zr1399     O1418   2.409       .  S
Zr1399     O1426   2.457       .  S
Zr1399     O1414   2.467       .  S
Zr1399     O1405   2.397       .  S
Zr1399     O1406   2.397       .  S
Zr1399     O1407   2.383       .  S
Zr1399     O1408   2.391       .  S
Zr1400     O1419   2.439       .  S
Zr1400     O1412   2.434       .  S
Zr1400     O1413   2.407       .  S
Zr1400     O1406   2.394       .  S
Zr1400     O1407   2.389       .  S
Zr1401     O1403   2.435       .  S
Zr1401     O1425   2.437       .  S
Zr1401     O1427   2.411       .  S
Zr1401     O1405   2.398       .  S
Zr1401     O1408   2.391       .  S
Zr1402     O1428   2.435       .  S
Zr1402     O1429   2.437       .  S
Zr1402     O1404   2.438       .  S
Zr1402     O1405   2.384       .  S
Zr1402     O1406   2.377       .  S
O1403      H1440   0.990       .  S
O1404      H1435   0.990       .  S
O1404      H1449   0.990       .  S
O1406      H1432   0.965       .  S
O1407     Zr1417   2.367       .  S
O1408     Zr1417   2.360       .  S
O1408      H1433   0.967       .  S
C1409      C2945   1.488       .  S
C1410      C3073   1.477   1_565  S
C1411      C3009   1.487       .  S
O1412      H1448   0.990       .  S
O1413      C1415   1.282       .  A
O1414      C1415   1.292       .  A
C1415      C3089   1.490       .  S
O1416     Zr1417   2.439       .  S
O1416      H1445   0.991       .  S
Zr1417     O1420   2.436       .  S
Zr1417     O1421   2.440       .  S
Zr1417     O1422   2.453       .  S
O1418      C1423   1.281       .  A
O1419      H1436   0.990       .  S
O1419      H1451   0.990       .  S
O1420      H1437   0.990       .  S
O1421      H1441   0.990       .  S
O1421      H1450   0.990       .  S
O1422      C1423   1.289       .  A
C1423      C2953   1.483       .  S
O1424      H1443   0.990       .  S
O1424      H1447   0.990       .  S
O1425      H1439   0.990       .  S
O1425      H1446   0.990       .  S
O1426      C1430   1.291       .  A
O1427      C1430   1.282       .  A
O1428      H1438   0.990       .  S
O1429      H1442   0.990       .  S
C1430      C3257   1.483       .  S
Zr1453     O1454   2.441       .  S
Zr1453     O1455   2.419       .  S
Zr1453     O1456   2.448       .  S
Zr1453     O1459   2.451       .  S
Zr1453     O1461   2.387       .  S
Zr1453     O1462   2.384       .  S
Zr1453     O1463   2.401       .  S
Zr1453     O1464   2.395       .  S
O1454      H1510   0.991       .  S
O1454      H1518   0.990       .  S
O1455      C1475   1.282       .  A
O1456      C1477   1.287       .  A
O1457     Zr1467   2.406       .  S
O1457      C1476   1.281       .  A
O1458     Zr1466   2.446       .  S
O1458      C1477   1.288       .  A
O1459      C1476   1.289       .  A
O1460     Zr1468   2.409       .  S
O1460      C1475   1.280       .  A
O1461     Zr1466   2.393       .  S
O1461     Zr1468   2.373       .  S
O1462     Zr1467   2.388       .  S
O1462     Zr1468   2.378       .  S
O1462      H1497   0.967       .  S
O1463     Zr1466   2.400       .  S
O1463     Zr1483   2.393       .  S
O1463      H1500   0.965       .  S
O1464     Zr1467   2.389       .  S
O1464     Zr1483   2.378       .  S
Zr1465     O1490   2.442       .  S
Zr1465     O1484   2.456       .  S
Zr1465     O1492   2.466       .  S
Zr1465     O1480   2.426       .  S
Zr1465     O1471   2.386       .  S
Zr1465     O1472   2.422       .  S
Zr1465     O1473   2.388       .  S
Zr1465     O1474   2.383       .  S
Zr1466     O1485   2.435       .  S
Zr1466     O1478   2.435       .  S
Zr1466     O1479   2.437       .  S
Zr1466     O1472   2.405       .  S
Zr1466     O1473   2.394       .  S
Zr1467     O1469   2.436       .  S
Zr1467     O1491   2.440       .  S
Zr1467     O1493   2.424       .  S
Zr1467     O1471   2.374       .  S
Zr1467     O1474   2.390       .  S
Zr1468     O1494   2.436       .  S
Zr1468     O1495   2.435       .  S
Zr1468     O1470   2.434       .  S
Zr1468     O1471   2.378       .  S
Zr1468     O1472   2.396       .  S
O1469      H1506   0.990       .  S
O1470      H1501   0.990   1_565  S
O1470      H1515   0.990       .  S
O1472      H1498   0.966       .  S
O1473     Zr1483   2.378       .  S
O1474     Zr1483   2.394       .  S
O1474      H1499   0.966       .  S
C1475      C3097   1.473   1_565  S
C1476      C2985   1.483       .  S
C1477      C2913   1.498       .  S
O1478      H1514   0.989       .  S
O1479      C1481   1.286       .  A
O1480      C1481   1.282       .  A
C1481      C2969   1.484       .  S
O1482     Zr1483   2.439       .  S
O1482      H1511   0.990       .  S
Zr1483     O1486   2.437       .  S
Zr1483     O1487   2.439       .  S
Zr1483     O1488   2.395       .  S
O1484      C1489   1.287       .  A
O1485      H1502   0.990       .  S
O1485      H1517   0.990       .  S
O1486      H1503   0.990       .  S
O1487      H1507   0.990       .  S
O1487      H1516   0.990       .  S
O1488      C1489   1.278       .  A
C1489      C3121   1.485       .  S
O1490      H1509   0.991       .  S
O1490      H1513   0.990       .  S
O1491      H1505   0.990       .  S
O1491      H1512   0.990       .  S
O1492      C1496   1.290       .  A
O1493      C1496   1.283       .  A
O1494      H1504   0.990       .  S
O1495      H1508   0.990       .  S
C1496      C2929   1.492       .  S
Zr1519     O1520   2.442       .  S
Zr1519     O1521   2.463       .  S
Zr1519     O1522   2.447       .  S
Zr1519     O1525   2.419       .  S
Zr1519     O1527   2.378       .  S
Zr1519     O1528   2.382       .  S
Zr1519     O1529   2.410       .  S
Zr1519     O1530   2.419       .  S
O1520      H1576   0.991       .  S
O1520      H1584   0.990       .  S
O1521      C1541   1.289       .  A
O1522      C1543   1.286       .  A
O1523     Zr1533   2.441       .  S
O1523      C1542   1.288       .  A
O1524     Zr1532   2.445       .  S
O1524      C1543   1.286       .  A
O1525      C1542   1.281       .  A
O1526     Zr1534   2.388       .  S
O1526      C1541   1.277       .  A
O1527     Zr1532   2.393       .  S
O1527     Zr1534   2.390       .  S
O1528     Zr1533   2.379       .  S
O1528     Zr1534   2.373       .  S
O1528      H1563   0.965       .  S
O1529     Zr1532   2.393       .  S
O1529     Zr1549   2.390       .  S
O1529      H1566   0.964       .  S
O1530     Zr1533   2.391       .  S
O1530     Zr1549   2.414       .  S
Zr1531     O1556   2.439       .  S
Zr1531     O1550   2.411       .  S
Zr1531     O1558   2.458       .  S
Zr1531     O1546   2.471       .  S
Zr1531     O1537   2.400       .  S
Zr1531     O1538   2.400       .  S
Zr1531     O1539   2.387       .  S
Zr1531     O1540   2.390       .  S
Zr1532     O1551   2.437       .  S
Zr1532     O1544   2.435       .  S
Zr1532     O1545   2.412       .  S
Zr1532     O1538   2.403       .  S
Zr1532     O1539   2.391       .  S
Zr1533     O1535   2.435       .  S
Zr1533     O1557   2.435       .  S
Zr1533     O1559   2.426       .  S
Zr1533     O1537   2.395       .  S
Zr1533     O1540   2.394       .  S
Zr1534     O1560   2.438       .  S
Zr1534     O1561   2.436       .  S
Zr1534     O1536   2.435       .  S
Zr1534     O1537   2.390       .  S
Zr1534     O1538   2.372       .  S
O1535      H1572   0.990       .  S
O1536      H1567   0.990       .  S
O1536      H1581   0.990       .  S
O1538      H1564   0.966       .  S
O1539     Zr1549   2.368       .  S
O1540     Zr1549   2.357       .  S
O1540      H1565   0.967       .  S
C1541      C3041   1.487       .  S
C1542      C2937   1.486       .  S
C1543      C2921   1.493       .  S
O1544      H1580   0.990       .  S
O1545      C1547   1.283       .  A
O1546      C1547   1.293       .  A
C1547      C2961   1.491       .  S
O1548     Zr1549   2.439       .  S
O1548      H1577   0.991       .  S
Zr1549     O1552   2.438       .  S
Zr1549     O1553   2.440       .  S
Zr1549     O1554   2.458       .  S
O1550      C1555   1.281       .  A
O1551      H1568   0.990       .  S
O1551      H1583   0.990       .  S
O1552      H1569   0.990       .  S
O1553      H1573   0.990       .  S
O1553      H1582   0.990       .  S
O1554      C1555   1.289       .  A
C1555      C3057   1.482       .  S
O1556      H1575   0.990       .  S
O1556      H1579   0.990       .  S
O1557      H1571   0.990       .  S
O1557      H1578   0.990       .  S
O1558      C1562   1.291       .  A
O1559      C1562   1.285       .  A
O1560      H1570   0.990       .  S
O1561      H1574   0.990       .  S
C1562      C3393   1.489       .  S
Zr1585     O1586   2.444       .  S
Zr1585     O1587   2.437   1_655  S
Zr1585     O1588   2.401       .  S
Zr1585     O1591   2.407       .  S
Zr1585     O1593   2.378       .  S
Zr1585     O1594   2.373       .  S
Zr1585     O1595   2.402       .  S
Zr1585     O1596   2.393       .  S
O1586      H1642   0.991       .  S
O1586      H1650   0.991       .  S
O1587      C1607   1.285       .  A
O1588      C1609   1.278       .  A
O1589     Zr1599   2.444       .  S
O1589      C1608   1.287       .  A
O1590     Zr1598   2.454       .  S
O1590      C1609   1.289       .  A
O1591      C1608   1.281       .  A
O1592     Zr1600   2.426   1_455  S
O1592      C1607   1.284       .  A
O1593     Zr1598   2.387       .  S
O1593     Zr1600   2.368       .  S
O1594     Zr1599   2.388       .  S
O1594     Zr1600   2.383       .  S
O1594      H1629   0.966       .  S
O1595     Zr1598   2.397       .  S
O1595     Zr1615   2.395       .  S
O1595      H1632   0.965       .  S
O1596     Zr1599   2.381       .  S
O1596     Zr1615   2.387       .  S
Zr1597     O1622   2.441       .  S
Zr1597     O1616   2.460       .  S
Zr1597     O1624   2.479       .  S
Zr1597     O1612   2.456       .  S
Zr1597     O1603   2.393       .  S
Zr1597     O1604   2.422       .  S
Zr1597     O1605   2.390       .  S
Zr1597     O1606   2.391       .  S
Zr1598     O1617   2.435       .  S
Zr1598     O1610   2.436   1_655  S
Zr1598     O1611   2.436       .  S
Zr1598     O1604   2.401       .  S
Zr1598     O1605   2.401       .  S
Zr1599     O1601   2.436       .  S
Zr1599     O1623   2.440       .  S
Zr1599     O1625   2.422       .  S
Zr1599     O1603   2.388       .  S
Zr1599     O1606   2.396       .  S
Zr1600     O1626   2.434   1_655  S
Zr1600     O1627   2.434   1_655  S
Zr1600     O1602   2.437   1_655  S
Zr1600     O1603   2.382       .  S
Zr1600     O1604   2.408       .  S
O1601      H1638   0.990       .  S
O1602      H1633   0.990       .  S
O1602      H1647   0.990       .  S
O1604      H1630   0.967       .  S
O1605     Zr1615   2.375       .  S
O1606     Zr1615   2.389       .  S
O1606      H1631   0.964       .  S
C1607      C2825   1.487       .  S
C1608      C2857   1.481       .  S
C1609      C3025   1.483   1_655  S
O1610      H1646   0.990       .  S
O1611      C1613   1.287       .  A
O1612      C1613   1.288       .  A
C1613      C2873   1.498       .  S
O1614     Zr1615   2.439       .  S
O1614      H1643   0.990       .  S
Zr1615     O1618   2.436       .  S
Zr1615     O1619   2.440       .  S
Zr1615     O1620   2.405       .  S
O1616      C1621   1.288       .  A
O1617      H1634   0.990       .  S
O1617      H1649   0.990       .  S
O1618      H1635   0.990       .  S
O1619      H1639   0.990       .  S
O1619      H1648   0.990       .  S
O1620      C1621   1.280       .  A
C1621      C2841   1.489       .  S
O1622      H1641   0.990       .  S
O1622      H1645   0.990       .  S
O1623      H1637   0.990       .  S
O1623      H1644   0.990       .  S
O1624      C1628   1.293       .  A
O1625      C1628   1.284       .  A
O1626      H1636   0.990   1_455  S
O1627      H1640   0.990   1_455  S
C1628      C2889   1.490       .  S
Zr1651     O1652   2.442       .  S
Zr1651     O1653   2.476       .  S
Zr1651     O1654   2.477       .  S
Zr1651     O1657   2.446       .  S
Zr1651     O1659   2.383       .  S
Zr1651     O1660   2.389       .  S
Zr1651     O1661   2.418       .  S
Zr1651     O1662   2.426       .  S
O1652      H1708   0.990       .  S
O1652      H1716   0.990       .  S
O1653      C1673   1.292       .  A
O1654      C1675   1.292       .  A
O1655     Zr1665   2.423       .  S
O1655      C1674   1.284       .  A
O1656     Zr1664   2.425       .  S
O1656      C1675   1.282       .  A
O1657      C1674   1.288       .  A
O1658     Zr1666   2.398       .  S
O1658      C1673   1.278       .  A
O1659     Zr1664   2.394       .  S
O1659     Zr1666   2.387       .  S
O1660     Zr1665   2.400       .  S
O1660     Zr1666   2.371       .  S
O1660      H1695   0.966       .  S
O1661     Zr1664   2.405       .  S
O1661     Zr1681   2.386       .  S
O1661      H1698   0.964       .  S
O1662     Zr1665   2.401       .  S
O1662     Zr1681   2.410       .  S
Zr1663     O1688   2.440       .  S
Zr1663     O1682   2.413       .  S
Zr1663     O1690   2.433       .  S
Zr1663     O1678   2.425       .  S
Zr1663     O1669   2.392       .  S
Zr1663     O1670   2.397       .  S
Zr1663     O1671   2.379       .  S
Zr1663     O1672   2.378       .  S
Zr1664     O1683   2.439       .  S
Zr1664     O1676   2.434       .  S
Zr1664     O1677   2.428       .  S
Zr1664     O1670   2.392       .  S
Zr1664     O1671   2.389       .  S
Zr1665     O1667   2.435       .  S
Zr1665     O1689   2.435       .  S
Zr1665     O1691   2.454       .  S
Zr1665     O1669   2.392       .  S
Zr1665     O1672   2.382       .  S
Zr1666     O1692   2.434       .  S
Zr1666     O1693   2.435       .  S
Zr1666     O1668   2.438       .  S
Zr1666     O1669   2.393       .  S
Zr1666     O1670   2.378       .  S
O1667      H1704   0.990       .  S
O1668      H1699   0.990   1_655  S
O1668      H1713   0.990   1_655  S
O1670      H1696   0.966       .  S
O1671     Zr1681   2.370       .  S
O1672     Zr1681   2.364       .  S
O1672      H1697   0.967       .  S
C1673      C2777   1.495   1_655  S
C1674      C2753   1.488       .  S
C1675      C2897   1.488       .  S
O1676      H1712   0.990       .  S
O1677      C1679   1.285       .  A
O1678      C1679   1.285       .  A
C1679      C2761   1.479       .  S
O1680     Zr1681   2.439       .  S
O1680      H1709   0.990       .  S
Zr1681     O1684   2.438       .  S
Zr1681     O1685   2.441       .  S
Zr1681     O1686   2.437       .  S
O1682      C1687   1.281       .  A
O1683      H1700   0.990       .  S
O1683      H1715   0.990       .  S
O1684      H1701   0.990       .  S
O1685      H1705   0.990       .  S
O1685      H1714   0.990       .  S
O1686      C1687   1.285       .  A
C1687      C2793   1.476       .  S
O1688      H1707   0.990       .  S
O1688      H1711   0.990       .  S
O1689      H1703   0.990       .  S
O1689      H1710   0.990       .  S
O1690      C1694   1.286       .  A
O1691      C1694   1.289       .  A
O1692      H1702   0.990       .  S
O1693      H1706   0.990       .  S
C1694      C2817   1.491       .  S
Zr1717     O1718   2.439       .  S
Zr1717     O1719   2.455       .  S
Zr1717     O1720   2.444       .  S
Zr1717     O1723   2.433       .  S
Zr1717     O1725   2.378       .  S
Zr1717     O1726   2.378       .  S
Zr1717     O1727   2.411       .  S
Zr1717     O1728   2.410       .  S
O1718      H1774   0.990       .  S
O1718      H1782   0.990       .  S
O1719      C1739   1.288       .  A
O1720      C1741   1.288       .  A
O1721     Zr1731   2.423       .  S
O1721      C1740   1.284       .  A
O1722     Zr1730   2.420       .  S
O1722      C1741   1.283       .  A
O1723      C1740   1.285       .  A
O1724     Zr1732   2.437       .  S
O1724      C1739   1.286       .  A
O1725     Zr1730   2.394       .  S
O1725     Zr1732   2.368       .  S
O1726     Zr1731   2.383       .  S
O1726     Zr1732   2.375       .  S
O1726      H1761   0.967       .  S
O1727     Zr1730   2.397       .  S
O1727     Zr1747   2.407       .  S
O1727      H1764   0.965       .  S
O1728     Zr1731   2.388       .  S
O1728     Zr1747   2.397       .  S
Zr1729     O1754   2.442       .  S
Zr1729     O1748   2.445       .  S
Zr1729     O1756   2.451       .  S
Zr1729     O1744   2.458       .  S
Zr1729     O1735   2.397       .  S
Zr1729     O1736   2.414       .  S
Zr1729     O1737   2.379       .  S
Zr1729     O1738   2.390       .  S
Zr1730     O1749   2.438       .  S
Zr1730     O1742   2.434       .  S
Zr1730     O1743   2.414       .  S
Zr1730     O1736   2.395       .  S
Zr1730     O1737   2.389       .  S
Zr1731     O1733   2.437       .  S
Zr1731     O1755   2.442       .  S
Zr1731     O1757   2.415       .  S
Zr1731     O1735   2.387       .  S
Zr1731     O1738   2.391       .  S
Zr1732     O1758   2.434       .  S
Zr1732     O1759   2.434       .  S
Zr1732     O1734   2.437       .  S
Zr1732     O1735   2.383       .  S
Zr1732     O1736   2.409       .  S
O1733      H1770   0.990       .  S
O1734      H1765   0.990       .  S
O1734      H1779   0.990       .  S
O1736      H1762   0.966       .  S
O1737     Zr1747   2.375       .  S
O1738     Zr1747   2.385       .  S
O1738      H1763   0.965       .  S
C1739      C2729   1.498       .  S
C1740      C2833   1.482       .  S
C1741      C3185   1.487       .  S
O1742      H1778   0.990       .  S
O1743      C1745   1.282       .  A
O1744      C1745   1.287       .  A
C1745      C2849   1.489       .  S
O1746     Zr1747   2.439       .  S
O1746      H1775   0.991       .  S
Zr1747     O1750   2.437       .  S
Zr1747     O1751   2.440       .  S
Zr1747     O1752   2.427       .  S
O1748      C1753   1.286       .  A
O1749      H1766   0.990       .  S
O1749      H1781   0.990       .  S
O1750      H1767   0.990       .  S
O1751      H1771   0.990       .  S
O1751      H1780   0.990       .  S
O1752      C1753   1.284       .  A
C1753      C2721   1.490       .  S
O1754      H1773   0.990       .  S
O1754      H1777   0.991       .  S
O1755      H1769   0.990       .  S
O1755      H1776   0.990       .  S
O1756      C1760   1.289       .  A
O1757      C1760   1.282       .  A
O1758      H1768   0.990       .  S
O1759      H1772   0.990       .  S
C1760      C2705   1.482       .  S
Zr1783     O1784   2.440       .  S
Zr1783     O1785   2.446       .  S
Zr1783     O1786   2.456       .  S
Zr1783     O1789   2.422       .  S
Zr1783     O1791   2.383       .  S
Zr1783     O1792   2.389       .  S
Zr1783     O1793   2.404       .  S
Zr1783     O1794   2.413       .  S
O1784      H1840   0.990       .  S
O1784      H1848   0.990       .  S
O1785      C1805   1.286       .  A
O1786      C1807   1.288       .  A
O1787     Zr1797   2.453       .  S
O1787      C1806   1.291   1_545  A
O1788     Zr1796   2.405       .  S
O1788      C1807   1.281       .  A
O1789      C1806   1.283   1_545  A
O1790     Zr1798   2.418       .  S
O1790      C1805   1.282       .  A
O1791     Zr1796   2.389       .  S
O1791     Zr1798   2.379       .  S
O1792     Zr1797   2.391       .  S
O1792     Zr1798   2.368       .  S
O1792      H1827   0.965       .  S
O1793     Zr1796   2.398       .  S
O1793     Zr1813   2.377       .  S
O1793      H1830   0.965       .  S
O1794     Zr1797   2.396       .  S
O1794     Zr1813   2.397       .  S
Zr1795     O1820   2.443       .  S
Zr1795     O1814   2.441       .  S
Zr1795     O1822   2.434       .  S
Zr1795     O1810   2.438       .  S
Zr1795     O1801   2.404       .  S
Zr1795     O1802   2.406       .  S
Zr1795     O1803   2.375       .  S
Zr1795     O1804   2.387       .  S
Zr1796     O1815   2.438       .  S
Zr1796     O1808   2.435       .  S
Zr1796     O1809   2.422       .  S
Zr1796     O1802   2.390       .  S
Zr1796     O1803   2.379       .  S
Zr1797     O1799   2.434   1_545  S
Zr1797     O1821   2.436       .  S
Zr1797     O1823   2.448       .  S
Zr1797     O1801   2.394       .  S
Zr1797     O1804   2.393       .  S
Zr1798     O1824   2.437       .  S
Zr1798     O1825   2.435       .  S
Zr1798     O1800   2.437       .  S
Zr1798     O1801   2.399       .  S
Zr1798     O1802   2.389       .  S
O1799      H1836   0.990       .  S
O1800      H1831   0.990       .  S
O1800      H1845   0.990       .  S
O1802      H1828   0.967       .  S
O1803     Zr1813   2.371       .  S
O1804     Zr1813   2.366       .  S
O1804      H1829   0.965       .  S
C1805      C2657   1.490       .  S
C1806      C2785   1.491       .  S
C1807      C2697   1.481       .  S
O1808      H1844   0.990       .  S
O1809      C1811   1.284       .  A
O1810      C1811   1.286       .  A
C1811      C2801   1.479       .  S
O1812     Zr1813   2.438       .  S
O1812      H1841   0.990       .  S
Zr1813     O1816   2.437       .  S
Zr1813     O1817   2.439       .  S
Zr1813     O1818   2.417       .  S
O1814      C1819   1.287       .  A
O1815      H1832   0.990       .  S
O1815      H1847   0.990       .  S
O1816      H1833   0.990       .  S
O1817      H1837   0.990       .  S
O1817      H1846   0.990   1_545  S
O1818      C1819   1.283       .  A
C1819      C2665   1.486       .  S
O1820      H1839   0.990       .  S
O1820      H1843   0.990       .  S
O1821      H1835   0.990       .  S
O1821      H1842   0.990       .  S
O1822      C1826   1.287       .  A
O1823      C1826   1.288       .  A
O1824      H1834   0.990       .  S
O1825      H1838   0.990       .  S
C1826      C2681   1.490       .  S
Zr1849     O1850   2.438       .  S
Zr1849     O1851   2.436       .  S
Zr1849     O1852   2.453       .  S
Zr1849     O1855   2.441       .  S
Zr1849     O1857   2.382       .  S
Zr1849     O1858   2.386       .  S
Zr1849     O1859   2.409       .  S
Zr1849     O1860   2.399       .  S
O1850      H1906   0.990       .  S
O1850      H1914   0.990       .  S
O1851      C1871   1.286   1_545  A
O1852      C1873   1.288       .  A
O1853     Zr1863   2.440       .  S
O1853      C1872   1.287       .  A
O1854     Zr1862   2.439       .  S
O1854      C1873   1.287       .  A
O1855      C1872   1.287       .  A
O1856     Zr1864   2.409   1_565  S
O1856      C1871   1.281       .  A
O1857     Zr1862   2.385       .  S
O1857     Zr1864   2.370       .  S
O1858     Zr1863   2.391       .  S
O1858     Zr1864   2.389       .  S
O1858      H1893   0.967       .  S
O1859     Zr1862   2.391       .  S
O1859     Zr1879   2.409       .  S
O1859      H1896   0.966       .  S
O1860     Zr1863   2.383       .  S
O1860     Zr1879   2.389       .  S
Zr1861     O1886   2.440       .  S
Zr1861     O1880   2.463       .  S
Zr1861     O1888   2.476       .  S
Zr1861     O1876   2.453       .  S
Zr1861     O1867   2.384       .  S
Zr1861     O1868   2.425       .  S
Zr1861     O1869   2.385       .  S
Zr1861     O1870   2.392       .  S
Zr1862     O1881   2.435       .  S
Zr1862     O1874   2.435       .  S
Zr1862     O1875   2.414       .  S
Zr1862     O1868   2.402       .  S
Zr1862     O1869   2.393       .  S
Zr1863     O1865   2.436       .  S
Zr1863     O1887   2.438       .  S
Zr1863     O1889   2.430       .  S
Zr1863     O1867   2.377       .  S
Zr1863     O1870   2.398       .  S
Zr1864     O1890   2.435       .  S
Zr1864     O1891   2.436       .  S
Zr1864     O1866   2.437   1_545  S
Zr1864     O1867   2.368       .  S
Zr1864     O1868   2.401       .  S
O1865      H1902   0.990       .  S
O1866      H1897   0.990       .  S
O1866      H1911   0.990       .  S
O1868      H1894   0.967       .  S
O1869     Zr1879   2.375       .  S
O1870     Zr1879   2.393       .  S
O1870      H1895   0.965       .  S
C1871      C2865   1.480       .  S
C1872      C2737   1.494   1_655  S
C1873      C2905   1.497       .  S
O1874      H1910   0.990       .  S
O1875      C1877   1.283       .  A
O1876      C1877   1.287       .  A
C1877      C2713   1.487       .  S
O1878     Zr1879   2.438       .  S
O1878      H1907   0.990       .  S
Zr1879     O1882   2.438       .  S
Zr1879     O1883   2.439       .  S
Zr1879     O1884   2.419       .  S
O1880      C1885   1.289       .  A
O1881      H1898   0.990       .  S
O1881      H1913   0.990       .  S
O1882      H1899   0.990       .  S
O1883      H1903   0.990       .  S
O1883      H1912   0.990       .  S
O1884      C1885   1.282       .  A
C1885      C2881   1.496       .  S
O1886      H1905   0.990       .  S
O1886      H1909   0.990       .  S
O1887      H1901   0.990       .  S
O1887      H1908   0.990       .  S
O1888      C1892   1.293       .  A
O1889      C1892   1.285       .  A
O1890      H1900   0.990       .  S
O1891      H1904   0.990       .  S
C1892      C2633   1.493       .  S
Zr1915     O1916   2.441       .  S
Zr1915     O1917   2.448       .  S
Zr1915     O1918   2.479       .  S
Zr1915     O1921   2.458   1_655  S
Zr1915     O1923   2.388       .  S
Zr1915     O1924   2.392       .  S
Zr1915     O1925   2.410       .  S
Zr1915     O1926   2.413       .  S
O1916      H1972   0.990       .  S
O1916      H1980   0.990       .  S
O1917      C1937   1.286       .  A
O1918      C1939   1.294       .  A
O1919     Zr1929   2.422   1_455  S
O1919      C1938   1.285       .  A
O1920     Zr1928   2.411       .  S
O1920      C1939   1.281       .  A
O1921      C1938   1.290       .  A
O1922     Zr1930   2.413       .  S
O1922      C1937   1.281       .  A
O1923     Zr1928   2.400       .  S
O1923     Zr1930   2.383       .  S
O1924     Zr1929   2.394       .  S
O1924     Zr1930   2.371       .  S
O1924      H1959   0.966       .  S
O1925     Zr1928   2.409       .  S
O1925     Zr1945   2.375       .  S
O1925      H1962   0.964       .  S
O1926     Zr1929   2.397       .  S
O1926     Zr1945   2.393       .  S
Zr1927     O1952   2.446       .  S
Zr1927     O1946   2.439       .  S
Zr1927     O1954   2.419       .  S
Zr1927     O1942   2.432       .  S
Zr1927     O1933   2.406       .  S
Zr1927     O1934   2.398       .  S
Zr1927     O1935   2.372       .  S
Zr1927     O1936   2.383       .  S
Zr1928     O1947   2.438       .  S
Zr1928     O1940   2.434       .  S
Zr1928     O1941   2.441       .  S
Zr1928     O1934   2.384       .  S
Zr1928     O1935   2.383       .  S
Zr1929     O1931   2.435   1_655  S
Zr1929     O1953   2.436       .  S
Zr1929     O1955   2.444       .  S
Zr1929     O1933   2.389       .  S
Zr1929     O1936   2.384       .  S
Zr1930     O1956   2.435       .  S
Zr1930     O1957   2.436       .  S
Zr1930     O1932   2.437       .  S
Zr1930     O1933   2.400       .  S
Zr1930     O1934   2.381       .  S
O1931      H1968   0.990       .  S
O1932      H1963   0.990       .  S
O1932      H1977   0.990       .  S
O1934      H1960   0.965       .  S
O1935     Zr1945   2.382       .  S
O1936     Zr1945   2.364       .  S
O1936      H1961   0.967       .  S
C1937      C2745   1.488   1_545  S
C1938      C2649   1.493       .  S
C1939      C2641   1.491       .  S
O1940      H1976   0.990       .  S
O1941      C1943   1.287       .  A
O1942      C1943   1.285       .  A
C1943      C2673   1.486       .  S
O1944     Zr1945   2.438   1_455  S
O1944      H1973   0.990       .  S
Zr1945     O1948   2.437       .  S
Zr1945     O1949   2.441   1_655  S
Zr1945     O1950   2.410       .  S
O1946      C1951   1.287       .  A
O1947      H1964   0.990       .  S
O1947      H1979   0.990       .  S
O1948      H1965   0.990       .  S
O1949      H1969   0.990       .  S
O1949      H1978   0.990       .  S
O1950      C1951   1.280       .  A
C1951      C2769   1.482       .  S
O1952      H1971   0.990       .  S
O1952      H1975   0.990       .  S
O1953      H1967   0.990       .  S
O1953      H1974   0.990       .  S
O1954      C1958   1.284       .  A
O1955      C1958   1.288       .  A
O1956      H1966   0.990       .  S
O1957      H1970   0.990       .  S
C1958      C2617   1.484       .  S
Zr1981     O1982   2.441       .  S
Zr1981     O1983   2.435       .  S
Zr1981     O1984   2.454       .  S
Zr1981     O1987   2.425       .  S
Zr1981     O1989   2.382       .  S
Zr1981     O1990   2.391       .  S
Zr1981     O1991   2.401       .  S
Zr1981     O1992   2.410       .  S
O1982      H2038   0.990       .  S
O1982      H2046   0.990       .  S
O1983      C2003   1.284       .  A
O1984      C2005   1.288       .  A
O1985     Zr1995   2.432       .  S
O1985      C2004   1.286       .  A
O1986     Zr1994   2.424       .  S
O1986      C2005   1.283       .  A
O1987      C2004   1.283       .  A
O1988     Zr1996   2.434       .  S
O1988      C2003   1.284       .  A
O1989     Zr1994   2.398       .  S
O1989     Zr1996   2.388       .  S
O1990     Zr1995   2.393       .  S
O1990     Zr1996   2.370       .  S
O1990      H2025   0.967       .  S
O1991     Zr1994   2.399       .  S
O1991     Zr2011   2.373       .  S
O1991      H2028   0.964       .  S
O1992     Zr1995   2.393       .  S
O1992     Zr2011   2.386       .  S
Zr1993     O2018   2.443       .  S
Zr1993     O2012   2.452       .  S
Zr1993     O2020   2.447       .  S
Zr1993     O2008   2.446       .  S
Zr1993     O1999   2.412       .  S
Zr1993     O2000   2.412       .  S
Zr1993     O2001   2.377       .  S
Zr1993     O2002   2.383       .  S
Zr1994     O2013   2.437       .  S
Zr1994     O2006   2.435       .  S
Zr1994     O2007   2.427       .  S
Zr1994     O2000   2.397       .  S
Zr1994     O2001   2.389       .  S
Zr1995     O1997   2.436       .  S
Zr1995     O2019   2.436       .  S
Zr1995     O2021   2.449       .  S
Zr1995     O1999   2.386       .  S
Zr1995     O2002   2.388       .  S
Zr1996     O2022   2.439       .  S
Zr1996     O2023   2.436       .  S
Zr1996     O1998   2.437       .  S
Zr1996     O1999   2.405       .  S
Zr1996     O2000   2.397       .  S
O1997      H2034   0.990       .  S
O1998      H2029   0.990       .  S
O1998      H2043   0.990       .  S
O2000      H2026   0.965       .  S
O2001     Zr2011   2.382       .  S
O2002     Zr2011   2.361       .  S
O2002      H2027   0.967       .  S
C2003      C2561   1.491       .  S
C2004      C2585   1.484       .  S
C2005      C2609   1.481       .  S
O2006      H2042   0.990       .  S
O2007      C2009   1.285       .  A
O2008      C2009   1.288       .  A
C2009      C2577   1.485       .  S
O2010     Zr2011   2.438       .  S
O2010      H2039   0.990       .  S
Zr2011     O2014   2.436       .  S
Zr2011     O2015   2.441       .  S
Zr2011     O2016   2.401       .  S
O2012      C2017   1.289       .  A
O2013      H2030   0.990       .  S
O2013      H2045   0.990       .  S
O2014      H2031   0.990       .  S
O2015      H2035   0.990       .  S
O2015      H2044   0.990       .  S
O2016      C2017   1.279       .  A
C2017      C2537   1.484       .  S
O2018      H2037   0.990       .  S
O2018      H2041   0.990       .  S
O2019      H2033   0.990       .  S
O2019      H2040   0.990       .  S
O2020      C2024   1.289       .  A
O2021      C2024   1.289       .  A
O2022      H2032   0.990       .  S
O2023      H2036   0.990       .  S
C2024      C2809   1.495       .  S
Zr2047     O2048   2.438       .  S
Zr2047     O2049   2.431       .  S
Zr2047     O2050   2.474       .  S
Zr2047     O2053   2.460       .  S
Zr2047     O2055   2.385       .  S
Zr2047     O2056   2.392       .  S
Zr2047     O2057   2.405       .  S
Zr2047     O2058   2.408       .  S
O2048      H2104   0.990       .  S
O2048      H2112   0.990       .  S
O2049      C2069   1.285       .  A
O2050      C2071   1.293       .  A
O2051     Zr2061   2.399       .  S
O2051      C2070   1.279       .  A
O2052     Zr2060   2.432       .  S
O2052      C2071   1.286       .  A
O2053      C2070   1.290       .  A
O2054     Zr2062   2.413       .  S
O2054      C2069   1.282       .  A
O2055     Zr2060   2.390       .  S
O2055     Zr2062   2.369       .  S
O2056     Zr2061   2.394       .  S
O2056     Zr2062   2.382       .  S
O2056      H2091   0.966       .  S
O2057     Zr2060   2.395       .  S
O2057     Zr2077   2.398       .  S
O2057      H2094   0.966       .  S
O2058     Zr2061   2.388       .  S
O2058     Zr2077   2.391       .  S
Zr2059     O2084   2.443       .  S
Zr2059     O2078   2.443       .  S
Zr2059     O2086   2.450       .  S
Zr2059     O2074   2.407       .  S
Zr2059     O2065   2.378       .  S
Zr2059     O2066   2.419       .  S
Zr2059     O2067   2.383       .  S
Zr2059     O2068   2.379       .  S
Zr2060     O2079   2.435       .  S
Zr2060     O2072   2.436       .  S
Zr2060     O2073   2.432       .  S
Zr2060     O2066   2.399       .  S
Zr2060     O2067   2.390       .  S
Zr2061     O2063   2.436       .  S
Zr2061     O2085   2.440       .  S
Zr2061     O2087   2.428       .  S
Zr2061     O2065   2.372       .  S
Zr2061     O2068   2.383       .  S
Zr2062     O2088   2.435       .  S
Zr2062     O2089   2.435       .  S
Zr2062     O2064   2.437       .  S
Zr2062     O2065   2.375       .  S
Zr2062     O2066   2.395       .  S
O2063      H2100   0.990       .  S
O2064      H2095   0.990       .  S
O2064      H2109   0.990       .  S
O2066      H2092   0.965       .  S
O2067     Zr2077   2.374       .  S
O2068     Zr2077   2.393       .  S
O2068      H2093   0.967       .  S
C2069      C2489   1.479       .  S
C2070      C2529   1.480       .  S
C2071      C3673   1.502       .  S
O2072      H2108   0.990       .  S
O2073      C2075   1.286       .  A
O2074      C2075   1.278       .  A
C2075      C2513   1.474       .  S
O2076     Zr2077   2.439       .  S
O2076      H2105   0.990       .  S
Zr2077     O2080   2.438       .  S
Zr2077     O2081   2.439       .  S
Zr2077     O2082   2.416       .  S
O2078      C2083   1.285       .  A
O2079      H2096   0.990       .  S
O2079      H2111   0.990       .  S
O2080      H2097   0.990       .  S
O2081      H2101   0.990       .  S
O2081      H2110   0.990       .  S
O2082      C2083   1.282       .  A
C2083      C2473   1.487       .  S
O2084      H2103   0.991       .  S
O2084      H2107   0.990       .  S
O2085      H2099   0.990       .  S
O2085      H2106   0.990       .  S
O2086      C2090   1.288       .  A
O2087      C2090   1.283       .  A
O2088      H2098   0.990       .  S
O2089      H2102   0.990       .  S
C2090      C2601   1.482       .  S
Zr2113     O2114   2.442       .  S
Zr2113     O2115   2.478       .  S
Zr2113     O2116   2.472       .  S
Zr2113     O2119   2.464       .  S
Zr2113     O2121   2.390       .  S
Zr2113     O2122   2.389       .  S
Zr2113     O2123   2.425       .  S
Zr2113     O2124   2.419       .  S
O2114      H2170   0.990       .  S
O2114      H2178   0.991       .  S
O2115      C2135   1.291       .  A
O2116      C2137   1.291       .  A
O2117     Zr2127   2.408       .  S
O2117      C2136   1.281       .  A
O2118     Zr2126   2.449       .  S
O2118      C2137   1.287   1_655  A
O2119      C2136   1.289       .  A
O2120     Zr2128   2.384       .  S
O2120      C2135   1.275       .  A
O2121     Zr2126   2.400   1_455  S
O2121     Zr2128   2.392       .  S
O2122     Zr2127   2.397       .  S
O2122     Zr2128   2.379       .  S
O2122      H2157   0.965       .  S
O2123     Zr2126   2.407   1_455  S
O2123     Zr2143   2.385   1_455  S
O2123      H2160   0.963       .  S
O2124     Zr2127   2.396       .  S
O2124     Zr2143   2.406   1_455  S
Zr2125     O2150   2.443       .  S
Zr2125     O2144   2.405       .  S
Zr2125     O2152   2.430       .  S
Zr2125     O2140   2.416       .  S
Zr2125     O2131   2.389   1_655  S
Zr2125     O2132   2.399       .  S
Zr2125     O2133   2.387       .  S
Zr2125     O2134   2.378       .  S
Zr2126     O2145   2.439       .  S
Zr2126     O2138   2.434       .  S
Zr2126     O2139   2.448       .  S
Zr2126     O2132   2.398       .  S
Zr2126     O2133   2.391       .  S
Zr2127     O2129   2.437       .  S
Zr2127     O2151   2.436       .  S
Zr2127     O2153   2.438       .  S
Zr2127     O2131   2.387       .  S
Zr2127     O2134   2.384   1_455  S
Zr2128     O2154   2.435       .  S
Zr2128     O2155   2.435       .  S
Zr2128     O2130   2.437       .  S
Zr2128     O2131   2.391       .  S
Zr2128     O2132   2.377   1_455  S
O2129      H2166   0.990       .  S
O2130      H2161   0.990       .  S
O2130      H2175   0.990       .  S
O2132      H2158   0.965       .  S
O2133     Zr2143   2.370       .  S
O2134     Zr2143   2.364       .  S
O2134      H2159   0.966       .  S
C2135      C2449   1.485       .  S
C2136      C2553   1.493       .  S
C2137      C2457   1.500       .  S
O2138      H2174   0.990       .  S
O2139      C2141   1.289       .  A
O2140      C2141   1.283       .  A
C2141      C2545   1.479       .  S
O2142     Zr2143   2.440   1_455  S
O2142      H2171   0.990   1_455  S
Zr2143     O2146   2.437       .  S
Zr2143     O2147   2.438       .  S
Zr2143     O2148   2.449       .  S
O2144      C2149   1.279       .  A
O2145      H2162   0.990       .  S
O2145      H2177   0.990       .  S
O2146      H2163   0.990       .  S
O2147      H2167   0.990       .  S
O2147      H2176   0.990   1_655  S
O2148      C2149   1.288       .  A
C2149      C2425   1.473       .  S
O2150      H2169   0.990       .  S
O2150      H2173   0.990       .  S
O2151      H2165   0.990       .  S
O2151      H2172   0.990       .  S
O2152      C2156   1.285       .  A
O2153      C2156   1.286   1_455  A
O2154      H2164   0.990       .  S
O2155      H2168   0.989   1_455  S
C2156      C2625   1.484       .  S
Zr2179     O2180   2.441       .  S
Zr2179     O2181   2.414       .  S
Zr2179     O2182   2.412       .  S
Zr2179     O2185   2.406       .  S
Zr2179     O2187   2.371       .  S
Zr2179     O2188   2.382       .  S
Zr2179     O2189   2.395       .  S
Zr2179     O2190   2.391       .  S
O2180      H2236   0.990       .  S
O2180      H2244   0.990       .  S
O2181      C2201   1.281       .  A
O2182      C2203   1.281       .  A
O2183     Zr2193   2.438       .  S
O2183      C2202   1.286       .  A
O2184     Zr2192   2.463   1_455  S
O2184      C2203   1.290       .  A
O2185      C2202   1.280       .  A
O2186     Zr2194   2.425       .  S
O2186      C2201   1.283       .  A
O2187     Zr2192   2.384   1_455  S
O2187     Zr2194   2.365       .  S
O2188     Zr2193   2.394       .  S
O2188     Zr2194   2.380       .  S
O2188      H2223   0.967       .  S
O2189     Zr2192   2.398   1_455  S
O2189     Zr2209   2.392   1_455  S
O2189      H2226   0.965       .  S
O2190     Zr2193   2.384       .  S
O2190     Zr2209   2.378   1_455  S
Zr2191     O2216   2.442       .  S
Zr2191     O2210   2.463       .  S
Zr2191     O2218   2.471       .  S
Zr2191     O2206   2.444       .  S
Zr2191     O2197   2.392   1_655  S
Zr2191     O2198   2.424       .  S
Zr2191     O2199   2.390       .  S
Zr2191     O2200   2.389       .  S
Zr2192     O2211   2.435       .  S
Zr2192     O2204   2.435       .  S
Zr2192     O2205   2.431       .  S
Zr2192     O2198   2.409       .  S
Zr2192     O2199   2.399       .  S
Zr2193     O2195   2.436       .  S
Zr2193     O2217   2.438       .  S
Zr2193     O2219   2.434       .  S
Zr2193     O2197   2.384       .  S
Zr2193     O2200   2.397   1_455  S
Zr2194     O2220   2.434       .  S
Zr2194     O2221   2.434       .  S
Zr2194     O2196   2.436       .  S
Zr2194     O2197   2.384       .  S
Zr2194     O2198   2.402   1_455  S
O2195      H2232   0.990       .  S
O2196      H2227   0.990       .  S
O2196      H2241   0.990       .  S
O2198      H2224   0.965       .  S
O2199     Zr2209   2.380       .  S
O2200     Zr2209   2.394       .  S
O2200      H2225   0.965       .  S
C2201      C2409   1.479       .  S
C2202      C2497   1.478       .  S
C2203      C3481   1.493       .  S
O2204      H2240   0.990       .  S
O2205      C2207   1.286       .  A
O2206      C2207   1.285       .  A
C2207      C2481   1.488       .  S
O2208     Zr2209   2.436   1_455  S
O2208      H2237   0.990       .  S
Zr2209     O2212   2.436       .  S
Zr2209     O2213   2.441       .  S
Zr2209     O2214   2.381       .  S
O2210      C2215   1.288       .  A
O2211      H2228   0.990       .  S
O2211      H2243   0.990       .  S
O2212      H2229   0.990       .  S
O2213      H2233   0.990       .  S
O2213      H2242   0.990       .  S
O2214      C2215   1.275       .  A
C2215      C2393   1.483       .  S
O2216      H2235   0.991       .  S
O2216      H2239   0.990       .  S
O2217      H2231   0.990       .  S
O2217      H2238   0.990       .  S
O2218      C2222   1.292   1_655  A
O2219      C2222   1.285       .  A
O2220      H2230   0.990       .  S
O2221      H2234   0.990       .  S
C2222      C2465   1.497       .  S
Zr2245     O2246   2.442       .  S
Zr2245     O2247   2.438       .  S
Zr2245     O2248   2.439       .  S
Zr2245     O2251   2.409       .  S
Zr2245     O2253   2.379       .  S
Zr2245     O2254   2.383       .  S
Zr2245     O2255   2.400       .  S
Zr2245     O2256   2.411       .  S
O2246      H2302   0.990       .  S
O2246      H2310   0.990       .  S
O2247      C2267   1.285       .  A
O2248      C2269   1.285       .  A
O2249     Zr2259   2.461       .  S
O2249      C2268   1.291       .  A
O2250     Zr2258   2.417   1_565  S
O2250      C2269   1.283       .  A
O2251      C2268   1.281       .  A
O2252     Zr2260   2.419       .  S
O2252      C2267   1.283       .  A
O2253     Zr2258   2.389   1_565  S
O2253     Zr2260   2.380       .  S
O2254     Zr2259   2.382       .  S
O2254     Zr2260   2.369       .  S
O2254      H2289   0.966       .  S
O2255     Zr2258   2.395   1_565  S
O2255     Zr2275   2.381   1_565  S
O2255      H2292   0.965       .  S
O2256     Zr2259   2.390       .  S
O2256     Zr2275   2.399   1_565  S
Zr2257     O2282   2.444       .  S
Zr2257     O2276   2.444       .  S
Zr2257     O2284   2.444       .  S
Zr2257     O2272   2.468       .  S
Zr2257     O2263   2.411   1_545  S
Zr2257     O2264   2.404       .  S
Zr2257     O2265   2.378       .  S
Zr2257     O2266   2.391       .  S
Zr2258     O2277   2.437       .  S
Zr2258     O2270   2.435       .  S
Zr2258     O2271   2.409       .  S
Zr2258     O2264   2.391       .  S
Zr2258     O2265   2.388       .  S
Zr2259     O2261   2.435       .  S
Zr2259     O2283   2.435       .  S
Zr2259     O2285   2.436       .  S
Zr2259     O2263   2.398       .  S
Zr2259     O2266   2.394   1_565  S
Zr2260     O2286   2.435       .  S
Zr2260     O2287   2.435       .  S
Zr2260     O2262   2.435       .  S
Zr2260     O2263   2.399       .  S
Zr2260     O2264   2.386   1_565  S
O2261      H2298   0.990       .  S
O2262      H2293   0.990       .  S
O2262      H2307   0.990       .  S
O2264      H2290   0.965       .  S
O2265     Zr2275   2.376       .  S
O2266     Zr2275   2.363       .  S
O2266      H2291   0.965       .  S
C2267      C2593   1.487       .  S
C2268      C2441   1.479       .  S
C2269      C2385   1.480       .  S
O2270      H2306   0.990   1_545  S
O2271      C2273   1.282       .  A
O2272      C2273   1.291       .  A
C2273      C2433   1.483       .  S
O2274     Zr2275   2.439   1_565  S
O2274      H2303   0.990   1_565  S
Zr2275     O2278   2.438       .  S
Zr2275     O2279   2.441       .  S
Zr2275     O2280   2.420       .  S
O2276      C2281   1.287       .  A
O2277      H2294   0.990       .  S
O2277      H2309   0.990       .  S
O2278      H2295   0.990       .  S
O2279      H2299   0.990       .  S
O2279      H2308   0.990   1_545  S
O2280      C2281   1.283       .  A
C2281      C2569   1.488       .  S
O2282      H2301   0.990       .  S
O2282      H2305   0.990       .  S
O2283      H2297   0.990       .  S
O2283      H2304   0.990       .  S
O2284      C2288   1.289       .  A
O2285      C2288   1.287   1_565  A
O2286      H2296   0.990       .  S
O2287      H2300   0.990   1_565  S
C2288      C2689   1.490       .  S
Zr2311     O2312   2.437       .  S
Zr2311     O2313   2.413       .  S
Zr2311     O2314   2.435       .  S
Zr2311     O2317   2.440       .  S
Zr2311     O2319   2.381       .  S
Zr2311     O2320   2.383       .  S
Zr2311     O2321   2.395   1_565  S
Zr2311     O2322   2.391       .  S
O2312      H2368   0.990       .  S
O2312      H2376   0.990       .  S
O2313      C2333   1.281       .  A
O2314      C2335   1.287       .  A
O2315     Zr2325   2.417       .  S
O2315      C2334   1.283       .  A
O2316     Zr2324   2.416       .  S
O2316      C2335   1.282   1_545  A
O2317      C2334   1.287       .  A
O2318     Zr2326   2.457       .  S
O2318      C2333   1.289       .  A
O2319     Zr2324   2.397   1_565  S
O2319     Zr2326   2.362       .  S
O2320     Zr2325   2.391       .  S
O2320     Zr2326   2.373       .  S
O2320      H2355   0.965       .  S
O2321     Zr2324   2.398       .  S
O2321     Zr2341   2.385       .  S
O2321      H2358   0.966       .  S
O2322     Zr2325   2.386       .  S
O2322     Zr2341   2.371   1_565  S
Zr2323     O2348   2.444       .  S
Zr2323     O2342   2.470       .  S
Zr2323     O2350   2.433       .  S
Zr2323     O2338   2.418       .  S
Zr2323     O2329   2.393   1_545  S
Zr2323     O2330   2.427       .  S
Zr2323     O2331   2.377       .  S
Zr2323     O2332   2.385       .  S
Zr2324     O2343   2.435       .  S
Zr2324     O2336   2.436       .  S
Zr2324     O2337   2.435       .  S
Zr2324     O2330   2.395       .  S
Zr2324     O2331   2.386       .  S
Zr2325     O2327   2.436       .  S
Zr2325     O2349   2.439       .  S
Zr2325     O2351   2.429       .  S
Zr2325     O2329   2.372       .  S
Zr2325     O2332   2.391   1_565  S
Zr2326     O2352   2.435       .  S
Zr2326     O2353   2.435       .  S
Zr2326     O2328   2.437       .  S
Zr2326     O2329   2.384       .  S
Zr2326     O2330   2.425   1_565  S
O2327      H2364   0.990       .  S
O2328      H2359   0.990       .  S
O2328      H2373   0.990       .  S
O2330      H2356   0.967       .  S
O2331     Zr2341   2.385       .  S
O2332     Zr2341   2.395       .  S
O2332      H2357   0.966       .  S
C2333      C2521   1.481       .  S
C2334      C2417   1.480       .  S
C2335      C3545   1.481       .  S
O2336      H2372   0.990       .  S
O2337      C2339   1.285       .  A
O2338      C2339   1.278       .  A
C2339      C2401   1.483       .  S
O2340     Zr2341   2.439       .  S
O2340      H2369   0.990       .  S
Zr2341     O2344   2.436       .  S
Zr2341     O2345   2.443       .  S
Zr2341     O2346   2.368       .  S
O2342      C2347   1.289       .  A
O2343      H2360   0.990       .  S
O2343      H2375   0.990       .  S
O2344      H2361   0.990       .  S
O2345      H2365   0.990       .  S
O2345      H2374   0.989       .  S
O2346      C2347   1.272       .  A
C2347      C2505   1.481       .  S
O2348      H2367   0.991       .  S
O2348      H2371   0.990       .  S
O2349      H2363   0.990       .  S
O2349      H2370   0.990       .  S
O2350      C2354   1.284       .  A
O2351      C2354   1.284   1_565  A
O2352      H2362   0.990       .  S
O2353      H2366   0.990   1_565  S
C2354      C2377   1.479       .  S
C2377      C2378   1.407       .  A
C2377      C2382   1.409   1_545  A
C2378      C2379   1.394       .  A
C2378      H2387   1.083       .  S
C2379      C2380   1.400       .  A
C2379      H2388   1.084       .  S
C2380      C2386   1.397   1_556  A
C2380      C2381   1.411   1_545  A
C2381      C2383   1.403       .  A
C2381      C2382   1.402       .  A
C2382      H2389   1.084       .  S
C2383      C2384   1.399   1_556  A
C2383      H2390   1.084       .  S
C2384      C2385   1.407       .  A
C2384      H2391   1.083       .  S
C2385      C2386   1.408   1_565  A
C2386      H2392   1.084       .  S
C2393      C2394   1.411       .  A
C2393      C2398   1.406       .  A
C2394      C2395   1.388       .  A
C2394      H2403   1.083       .  S
C2395      C2396   1.394       .  A
C2395      H2404   1.084       .  S
C2396      C2402   1.399       .  A
C2396      C2397   1.415       .  A
C2397      C2399   1.401       .  A
C2397      C2398   1.410       .  A
C2398      H2405   1.084       .  S
C2399      C2400   1.400       .  A
C2399      H2406   1.084       .  S
C2400      C2401   1.410       .  A
C2400      H2407   1.083       .  S
C2401      C2402   1.401       .  A
C2402      H2408   1.084       .  S
C2409      C2410   1.406       .  A
C2409      C2414   1.409       .  A
C2410      C2411   1.394       .  A
C2410      H2419   1.083       .  S
C2411      C2412   1.401       .  A
C2411      H2420   1.084       .  S
C2412      C2418   1.398       .  A
C2412      C2413   1.411       .  A
C2413      C2415   1.404       .  A
C2413      C2414   1.402       .  A
C2414      H2421   1.084       .  S
C2415      C2416   1.399       .  A
C2415      H2422   1.084       .  S
C2416      C2417   1.405       .  A
C2416      H2423   1.083       .  S
C2417      C2418   1.408       .  A
C2418      H2424   1.084       .  S
C2425      C2426   1.406       .  A
C2425      C2430   1.401       .  A
C2426      C2427   1.401       .  A
C2426      H2435   1.083       .  S
C2427      C2428   1.404       .  A
C2427      H2436   1.083       .  S
C2428      C2434   1.411       .  A
C2428      C2429   1.416       .  A
C2429      C2431   1.397       .  A
C2429      C2430   1.402       .  A
C2430      H2437   1.085       .  S
C2431      C2432   1.393       .  A
C2431      H2438   1.084       .  S
C2432      C2433   1.408       .  A
C2432      H2439   1.083       .  S
C2433      C2434   1.408       .  A
C2434      H2440   1.084       .  S
C2441      C2442   1.408       .  A
C2441      C2446   1.402       .  A
C2442      C2443   1.398       .  A
C2442      H2451   1.083       .  S
C2443      C2444   1.401       .  A
C2443      H2452   1.084       .  S
C2444      C2450   1.410       .  A
C2444      C2445   1.417       .  A
C2445      C2447   1.398       .  A
C2445      C2446   1.407       .  A
C2446      H2453   1.084       .  S
C2447      C2448   1.394       .  A
C2447      H2454   1.084       .  S
C2448      C2449   1.411       .  A
C2448      H2455   1.083       .  S
C2449      C2450   1.405       .  A
C2450      H2456   1.084       .  S
C2457      C2458   1.408       .  A
C2457      C2462   1.414   1_455  A
C2458      C2459   1.402       .  A
C2458      H2467   1.083       .  S
C2459      C2460   1.404   1_554  A
C2459      H2468   1.084   1_554  S
C2460      C2466   1.411       .  A
C2460      C2461   1.412   1_455  A
C2461      C2463   1.405       .  A
C2461      C2462   1.413   1_556  A
C2462      H2469   1.084       .  S
C2463      C2464   1.403       .  A
C2463      H2470   1.083       .  S
C2464      C2465   1.407   1_655  A
C2464      H2471   1.083       .  S
C2465      C2466   1.414       .  A
C2466      H2472   1.084       .  S
C2473      C2474   1.408       .  A
C2473      C2478   1.407       .  A
C2474      C2475   1.402       .  A
C2474      H2483   1.083       .  S
C2475      C2476   1.405       .  A
C2475      H2484   1.084       .  S
C2476      C2482   1.409       .  A
C2476      C2477   1.412       .  A
C2477      C2479   1.399       .  A
C2477      C2478   1.401       .  A
C2478      H2485   1.084       .  S
C2479      C2480   1.394       .  A
C2479      H2486   1.084       .  S
C2480      C2481   1.407       .  A
C2480      H2487   1.083       .  S
C2481      C2482   1.412       .  A
C2482      H2488   1.084       .  S
C2489      C2490   1.408       .  A
C2489      C2494   1.407       .  A
C2490      C2491   1.392       .  A
C2490      H2499   1.083       .  S
C2491      C2492   1.398       .  A
C2491      H2500   1.084       .  S
C2492      C2498   1.399       .  A
C2492      C2493   1.414       .  A
C2493      C2495   1.401       .  A
C2493      C2494   1.403       .  A
C2494      H2501   1.084       .  S
C2495      C2496   1.396       .  A
C2495      H2502   1.084       .  S
C2496      C2497   1.408       .  A
C2496      H2503   1.083       .  S
C2497      C2498   1.404       .  A
C2498      H2504   1.084       .  S
C2505      C2506   1.413       .  A
C2505      C2510   1.404       .  A
C2506      C2507   1.386       .  A
C2506      H2515   1.083       .  S
C2507      C2508   1.392       .  A
C2507      H2516   1.084       .  S
C2508      C2514   1.397       .  A
C2508      C2509   1.417       .  A
C2509      C2511   1.399       .  A
C2509      C2510   1.407       .  A
C2510      H2517   1.084       .  S
C2511      C2512   1.396       .  A
C2511      H2518   1.083       .  S
C2512      C2513   1.409       .  A
C2512      H2519   1.083       .  S
C2513      C2514   1.399       .  A
C2514      H2520   1.085       .  S
C2521      C2522   1.408       .  A
C2521      C2526   1.402       .  A
C2522      C2523   1.401       .  A
C2522      H2531   1.083       .  S
C2523      C2524   1.403       .  A
C2523      H2532   1.083       .  S
C2524      C2530   1.412       .  A
C2524      C2525   1.417       .  A
C2525      C2527   1.396       .  A
C2525      C2526   1.404       .  A
C2526      H2533   1.085       .  S
C2527      C2528   1.391       .  A
C2527      H2534   1.084       .  S
C2528      C2529   1.408       .  A
C2528      H2535   1.083       .  S
C2529      C2530   1.406       .  A
C2530      H2536   1.084       .  S
C2537      C2538   1.410       .  A
C2537      C2542   1.406       .  A
C2538      C2539   1.393       .  A
C2538      H2547   1.083       .  S
C2539      C2540   1.398       .  A
C2539      H2548   1.084       .  S
C2540      C2546   1.402       .  A
C2540      C2541   1.415       .  A
C2541      C2543   1.401       .  A
C2541      C2542   1.406       .  A
C2542      H2549   1.084       .  S
C2543      C2544   1.398       .  A
C2543      H2550   1.084       .  S
C2544      C2545   1.407       .  A
C2544      H2551   1.083       .  S
C2545      C2546   1.404       .  A
C2546      H2552   1.084       .  S
C2553      C2554   1.411       .  A
C2553      C2558   1.411       .  A
C2554      C2555   1.393       .  A
C2554      H2563   1.083       .  S
C2555      C2556   1.397       .  A
C2555      H2564   1.084       .  S
C2556      C2562   1.405       .  A
C2556      C2557   1.414       .  A
C2557      C2559   1.403       .  A
C2557      C2558   1.413       .  A
C2558      H2565   1.084       .  S
C2559      C2560   1.402       .  A
C2559      H2566   1.083       .  S
C2560      C2561   1.409       .  A
C2560      H2567   1.083       .  S
C2561      C2562   1.407       .  A
C2562      H2568   1.084       .  S
C2569      C2570   1.409       .  A
C2569      C2574   1.410       .  A
C2570      C2571   1.394       .  A
C2570      H2579   1.083       .  S
C2571      C2572   1.399       .  A
C2571      H2580   1.084       .  S
C2572      C2578   1.402       .  A
C2572      C2573   1.413       .  A
C2573      C2575   1.404       .  A
C2573      C2574   1.409       .  A
C2574      H2581   1.084       .  S
C2575      C2576   1.401       .  A
C2575      H2582   1.083       .  S
C2576      C2577   1.406       .  A
C2576      H2583   1.083       .  S
C2577      C2578   1.407       .  A
C2578      H2584   1.084       .  S
C2585      C2586   1.406       .  A
C2585      C2590   1.413       .  A
C2586      C2587   1.391       .  A
C2586      H2595   1.083       .  S
C2587      C2588   1.398       .  A
C2587      H2596   1.084       .  S
C2588      C2594   1.398       .  A
C2588      C2589   1.412       .  A
C2589      C2591   1.406       .  A
C2589      C2590   1.410       .  A
C2590      H2597   1.084       .  S
C2591      C2592   1.404       .  A
C2591      H2598   1.083       .  S
C2592      C2593   1.408       .  A
C2592      H2599   1.083       .  S
C2593      C2594   1.407       .  A
C2594      H2600   1.084       .  S
C2601      C2602   1.407       .  A
C2601      C2606   1.408       .  A
C2602      C2603   1.398       .  A
C2602      H2611   1.083       .  S
C2603      C2604   1.402   1_556  A
C2603      H2612   1.084   1_556  S
C2604      C2610   1.403       .  A
C2604      C2605   1.412   1_554  A
C2605      C2607   1.403   1_556  A
C2605      C2606   1.404       .  A
C2606      H2613   1.084       .  S
C2607      C2608   1.399       .  A
C2607      H2614   1.084   1_554  S
C2608      C2609   1.406       .  A
C2608      H2615   1.083       .  S
C2609      C2610   1.408       .  A
C2610      H2616   1.084       .  S
C2617      C2618   1.407       .  A
C2617      C2622   1.409       .  A
C2618      C2619   1.399   1_655  A
C2618      H2627   1.083   1_655  S
C2619      C2620   1.403   1_455  A
C2619      H2628   1.084       .  S
C2620      C2626   1.405       .  A
C2620      C2621   1.412       .  A
C2621      C2623   1.402       .  A
C2621      C2622   1.401       .  A
C2622      H2629   1.084       .  S
C2623      C2624   1.397       .  A
C2623      H2630   1.084       .  S
C2624      C2625   1.407       .  A
C2624      H2631   1.083       .  S
C2625      C2626   1.409       .  A
C2626      H2632   1.084   1_655  S
C2633      C2634   1.407       .  A
C2633      C2638   1.413       .  A
C2634      C2635   1.402       .  A
C2634      H2643   1.083       .  S
C2635      C2636   1.405       .  A
C2635      H2644   1.084       .  S
C2636      C2642   1.407       .  A
C2636      C2637   1.410       .  A
C2637      C2639   1.404       .  A
C2637      C2638   1.406       .  A
C2638      H2645   1.084       .  S
C2639      C2640   1.399       .  A
C2639      H2646   1.083       .  S
C2640      C2641   1.405       .  A
C2640      H2647   1.083       .  S
C2641      C2642   1.415       .  A
C2642      H2648   1.084       .  S
C2649      C2650   1.409       .  A
C2649      C2654   1.412       .  A
C2650      C2651   1.394       .  A
C2650      H2659   1.083       .  S
C2651      C2652   1.399       .  A
C2651      H2660   1.084       .  S
C2652      C2658   1.401       .  A
C2652      C2653   1.412       .  A
C2653      C2655   1.406       .  A
C2653      C2654   1.411       .  A
C2654      H2661   1.084       .  S
C2655      C2656   1.405       .  A
C2655      H2662   1.083       .  S
C2656      C2657   1.407       .  A
C2656      H2663   1.083       .  S
C2657      C2658   1.409       .  A
C2658      H2664   1.084       .  S
C2665      C2666   1.409       .  A
C2665      C2670   1.409       .  A
C2666      C2667   1.393       .  A
C2666      H2675   1.083       .  S
C2667      C2668   1.398       .  A
C2667      H2676   1.084       .  S
C2668      C2674   1.403       .  A
C2668      C2669   1.414       .  A
C2669      C2671   1.402       .  A
C2669      C2670   1.408       .  A
C2670      H2677   1.084       .  S
C2671      C2672   1.400       .  A
C2671      H2678   1.084       .  S
C2672      C2673   1.409       .  A
C2672      H2679   1.083       .  S
C2673      C2674   1.406       .  A
C2674      H2680   1.084       .  S
C2681      C2682   1.408       .  A
C2681      C2686   1.410       .  A
C2682      C2683   1.398       .  A
C2682      H2691   1.083       .  S
C2683      C2684   1.401       .  A
C2683      H2692   1.084       .  S
C2684      C2690   1.407       .  A
C2684      C2685   1.413       .  A
C2685      C2687   1.402   1_545  A
C2685      C2686   1.408       .  A
C2686      H2693   1.084       .  S
C2687      C2688   1.399       .  A
C2687      H2694   1.084       .  S
C2688      C2689   1.409   1_565  A
C2688      H2695   1.083       .  S
C2689      C2690   1.409       .  A
C2690      H2696   1.084       .  S
C2697      C2698   1.405       .  A
C2697      C2702   1.409       .  A
C2698      C2699   1.403       .  A
C2698      H2707   1.083       .  S
C2699      C2700   1.407       .  A
C2699      H2708   1.083       .  S
C2700      C2706   1.405       .  A
C2700      C2701   1.410       .  A
C2701      C2703   1.401       .  A
C2701      C2702   1.396       .  A
C2702      H2709   1.084       .  S
C2703      C2704   1.393       .  A
C2703      H2710   1.084       .  S
C2704      C2705   1.404       .  A
C2704      H2711   1.083       .  S
C2705      C2706   1.413       .  A
C2706      H2712   1.084       .  S
C2713      C2714   1.408       .  A
C2713      C2718   1.411       .  A
C2714      C2715   1.392       .  A
C2714      H2723   1.083       .  S
C2715      C2716   1.398       .  A
C2715      H2724   1.084       .  S
C2716      C2722   1.401       .  A
C2716      C2717   1.413       .  A
C2717      C2719   1.405       .  A
C2717      C2718   1.410       .  A
C2718      H2725   1.084       .  S
C2719      C2720   1.403       .  A
C2719      H2726   1.084       .  S
C2720      C2721   1.409       .  A
C2720      H2727   1.083       .  S
C2721      C2722   1.407       .  A
C2722      H2728   1.084       .  S
C2729      C2730   1.410       .  A
C2729      C2734   1.413       .  A
C2730      C2731   1.397       .  A
C2730      H2739   1.083       .  S
C2731      C2732   1.400       .  A
C2731      H2740   1.084       .  S
C2732      C2738   1.407       .  A
C2732      C2733   1.413       .  A
C2733      C2735   1.405       .  A
C2733      C2734   1.414       .  A
C2734      H2741   1.084       .  S
C2735      C2736   1.403       .  A
C2735      H2742   1.083       .  S
C2736      C2737   1.409       .  A
C2736      H2743   1.083       .  S
C2737      C2738   1.410       .  A
C2738      H2744   1.084       .  S
C2745      C2746   1.407       .  A
C2745      C2750   1.409       .  A
C2746      C2747   1.402       .  A
C2746      H2755   1.083       .  S
C2747      C2748   1.405       .  A
C2747      H2756   1.083       .  S
C2748      C2754   1.408       .  A
C2748      C2749   1.412       .  A
C2749      C2751   1.400       .  A
C2749      C2750   1.401       .  A
C2750      H2757   1.084       .  S
C2751      C2752   1.395       .  A
C2751      H2758   1.084       .  S
C2752      C2753   1.409       .  A
C2752      H2759   1.083       .  S
C2753      C2754   1.411       .  A
C2754      H2760   1.084       .  S
C2761      C2762   1.407       .  A
C2761      C2766   1.407       .  A
C2762      C2763   1.396       .  A
C2762      H2771   1.083       .  S
C2763      C2764   1.400       .  A
C2763      H2772   1.084       .  S
C2764      C2770   1.403       .  A
C2764      C2765   1.413       .  A
C2765      C2767   1.399       .  A
C2765      C2766   1.401       .  A
C2766      H2773   1.084       .  S
C2767      C2768   1.395       .  A
C2767      H2774   1.084       .  S
C2768      C2769   1.409       .  A
C2768      H2775   1.083       .  S
C2769      C2770   1.405       .  A
C2770      H2776   1.084       .  S
C2777      C2778   1.407       .  A
C2777      C2782   1.413       .  A
C2778      C2779   1.407       .  A
C2778      H2787   1.083       .  S
C2779      C2780   1.409       .  A
C2779      H2788   1.083       .  S
C2780      C2786   1.410       .  A
C2780      C2781   1.409       .  A
C2781      C2783   1.402       .  A
C2781      C2782   1.401       .  A
C2782      H2789   1.084       .  S
C2783      C2784   1.396       .  A
C2783      H2790   1.084       .  S
C2784      C2785   1.405       .  A
C2784      H2791   1.083       .  S
C2785      C2786   1.416       .  A
C2786      H2792   1.084       .  S
C2793      C2794   1.406       .  A
C2793      C2798   1.404       .  A
C2794      C2795   1.397       .  A
C2794      H2803   1.083       .  S
C2795      C2796   1.402       .  A
C2795      H2804   1.084       .  S
C2796      C2802   1.405       .  A
C2796      C2797   1.414       .  A
C2797      C2799   1.399       .  A
C2797      C2798   1.401       .  A
C2798      H2805   1.085       .  S
C2799      C2800   1.394       .  A
C2799      H2806   1.084       .  S
C2800      C2801   1.407       .  A
C2800      H2807   1.083       .  S
C2801      C2802   1.406       .  A
C2802      H2808   1.084       .  S
C2809      C2810   1.409       .  A
C2809      C2814   1.410       .  A
C2810      C2811   1.402       .  A
C2810      H2819   1.083       .  S
C2811      C2812   1.403       .  A
C2811      H2820   1.083       .  S
C2812      C2818   1.412       .  A
C2812      C2813   1.414       .  A
C2813      C2815   1.401       .  A
C2813      C2814   1.409       .  A
C2814      H2821   1.084       .  S
C2815      C2816   1.398       .  A
C2815      H2822   1.084       .  S
C2816      C2817   1.408       .  A
C2816      H2823   1.083       .  S
C2817      C2818   1.410       .  A
C2818      H2824   1.084       .  S
C2825      C2826   1.408       .  A
C2825      C2830   1.412       .  A
C2826      C2827   1.392       .  A
C2826      H2835   1.083       .  S
C2827      C2828   1.398       .  A
C2827      H2836   1.084       .  S
C2828      C2834   1.398       .  A
C2828      C2829   1.412       .  A
C2829      C2831   1.405       .  A
C2829      C2830   1.409       .  A
C2830      H2837   1.084       .  S
C2831      C2832   1.402   1_565  A
C2831      H2838   1.083       .  S
C2832      C2833   1.407       .  A
C2832      H2839   1.083       .  S
C2833      C2834   1.406   1_545  A
C2834      H2840   1.084       .  S
C2841      C2842   1.407       .  A
C2841      C2846   1.409       .  A
C2842      C2843   1.405       .  A
C2842      H2851   1.083       .  S
C2843      C2844   1.406       .  A
C2843      H2852   1.083       .  S
C2844      C2850   1.411       .  A
C2844      C2845   1.412       .  A
C2845      C2847   1.399       .  A
C2845      C2846   1.400       .  A
C2846      H2853   1.084       .  S
C2847      C2848   1.393       .  A
C2847      H2854   1.084       .  S
C2848      C2849   1.408       .  A
C2848      H2855   1.083       .  S
C2849      C2850   1.412       .  A
C2850      H2856   1.084       .  S
C2857      C2858   1.409       .  A
C2857      C2862   1.405       .  A
C2858      C2859   1.394       .  A
C2858      H2867   1.083       .  S
C2859      C2860   1.399       .  A
C2859      H2868   1.084       .  S
C2860      C2866   1.401       .  A
C2860      C2861   1.414       .  A
C2861      C2863   1.400       .  A
C2861      C2862   1.403       .  A
C2862      H2869   1.084       .  S
C2863      C2864   1.395       .  A
C2863      H2870   1.084       .  S
C2864      C2865   1.409       .  A
C2864      H2871   1.083       .  S
C2865      C2866   1.405       .  A
C2866      H2872   1.084       .  S
C2873      C2874   1.409       .  A
C2873      C2878   1.414       .  A
C2874      C2875   1.398       .  A
C2874      H2883   1.083       .  S
C2875      C2876   1.402       .  A
C2875      H2884   1.084       .  S
C2876      C2882   1.408       .  A
C2876      C2877   1.412       .  A
C2877      C2879   1.406       .  A
C2877      C2878   1.413       .  A
C2878      H2885   1.084       .  S
C2879      C2880   1.404       .  A
C2879      H2886   1.083       .  S
C2880      C2881   1.408       .  A
C2880      H2887   1.083       .  S
C2881      C2882   1.412       .  A
C2882      H2888   1.084       .  S
C2889      C2890   1.408       .  A
C2889      C2894   1.411       .  A
C2890      C2891   1.396       .  A
C2890      H2899   1.083       .  S
C2891      C2892   1.400       .  A
C2891      H2900   1.084       .  S
C2892      C2898   1.408       .  A
C2892      C2893   1.415       .  A
C2893      C2895   1.404       .  A
C2893      C2894   1.414       .  A
C2894      H2901   1.084       .  S
C2895      C2896   1.403       .  A
C2895      H2902   1.084       .  S
C2896      C2897   1.409       .  A
C2896      H2903   1.083       .  S
C2897      C2898   1.406       .  A
C2898      H2904   1.084       .  S
C2905      C2906   1.409       .  A
C2905      C2910   1.412       .  A
C2906      C2907   1.400   1_545  A
C2906      H2915   1.083       .  S
C2907      C2908   1.402       .  A
C2907      H2916   1.084       .  S
C2908      C2914   1.412       .  A
C2908      C2909   1.414       .  A
C2909      C2911   1.403       .  A
C2909      C2910   1.413   1_565  A
C2910      H2917   1.084       .  S
C2911      C2912   1.401       .  A
C2911      H2918   1.084       .  S
C2912      C2913   1.410       .  A
C2912      H2919   1.083       .  S
C2913      C2914   1.411       .  A
C2914      H2920   1.084       .  S
C2921      C2922   1.408       .  A
C2921      C2926   1.412       .  A
C2922      C2923   1.398       .  A
C2922      H2931   1.083       .  S
C2923      C2924   1.402       .  A
C2923      H2932   1.084       .  S
C2924      C2930   1.406       .  A
C2924      C2925   1.412       .  A
C2925      C2927   1.405       .  A
C2925      C2926   1.410       .  A
C2926      H2933   1.084       .  S
C2927      C2928   1.403       .  A
C2927      H2934   1.083       .  S
C2928      C2929   1.407       .  A
C2928      H2935   1.083       .  S
C2929      C2930   1.411       .  A
C2930      H2936   1.084       .  S
C2937      C2938   1.405       .  A
C2937      C2942   1.416       .  A
C2938      C2939   1.391       .  A
C2938      H2947   1.083       .  S
C2939      C2940   1.400       .  A
C2939      H2948   1.084       .  S
C2940      C2946   1.395       .  A
C2940      C2941   1.409       .  A
C2941      C2943   1.409       .  A
C2941      C2942   1.409       .  A
C2942      H2949   1.084       .  S
C2943      C2944   1.407       .  A
C2943      H2950   1.083       .  S
C2944      C2945   1.406   1_655  A
C2944      H2951   1.083   1_655  S
C2945      C2946   1.410   1_455  A
C2946      H2952   1.084       .  S
C2953      C2954   1.409       .  A
C2953      C2958   1.402       .  A
C2954      C2955   1.402       .  A
C2954      H2963   1.083       .  S
C2955      C2956   1.403       .  A
C2955      H2964   1.083       .  S
C2956      C2962   1.413       .  A
C2956      C2957   1.415       .  A
C2957      C2959   1.395       .  A
C2957      C2958   1.403       .  A
C2958      H2965   1.085       .  S
C2959      C2960   1.391       .  A
C2959      H2966   1.084       .  S
C2960      C2961   1.411       .  A
C2960      H2967   1.083       .  S
C2961      C2962   1.410       .  A
C2962      H2968   1.084       .  S
C2969      C2970   1.405       .  A
C2969      C2974   1.412       .  A
C2970      C2971   1.396       .  A
C2970      H2979   1.083       .  S
C2971      C2972   1.403       .  A
C2971      H2980   1.084       .  S
C2972      C2978   1.397       .  A
C2972      C2973   1.409       .  A
C2973      C2975   1.406       .  A
C2973      C2974   1.403       .  A
C2974      H2981   1.083       .  S
C2975      C2976   1.402       .  A
C2975      H2982   1.083       .  S
C2976      C2977   1.404       .  A
C2976      H2983   1.083       .  S
C2977      C2978   1.412       .  A
C2978      H2984   1.084       .  S
C2985      C2986   1.410       .  A
C2985      C2990   1.406       .  A
C2986      C2987   1.393       .  A
C2986      H2995   1.083       .  S
C2987      C2988   1.398       .  A
C2987      H2996   1.084       .  S
C2988      C2994   1.402       .  A
C2988      C2989   1.415       .  A
C2989      C2991   1.401       .  A
C2989      C2990   1.407       .  A
C2990      H2997   1.084       .  S
C2991      C2992   1.397       .  A
C2991      H2998   1.083       .  S
C2992      C2993   1.407   1_655  A
C2992      H2999   1.083   1_655  S
C2993      C2994   1.403   1_455  A
C2994      H3000   1.085       .  S
C3001      C3002   1.407       .  A
C3001      C3006   1.411       .  A
C3002      C3003   1.398       .  A
C3002      H3011   1.083       .  S
C3003      C3004   1.402       .  A
C3003      H3012   1.084       .  S
C3004      C3010   1.404       .  A
C3004      C3005   1.412       .  A
C3005      C3007   1.403       .  A
C3005      C3006   1.406       .  A
C3006      H3013   1.084       .  S
C3007      C3008   1.399       .  A
C3007      H3014   1.084       .  S
C3008      C3009   1.409       .  A
C3008      H3015   1.083       .  S
C3009      C3010   1.409       .  A
C3010      H3016   1.084       .  S
C3017      C3018   1.411       .  A
C3017      C3022   1.402       .  A
C3018      C3019   1.393       .  A
C3018      H3027   1.083       .  S
C3019      C3020   1.397       .  A
C3019      H3028   1.084       .  S
C3020      C3026   1.405       .  A
C3020      C3021   1.416       .  A
C3021      C3023   1.397       .  A
C3021      C3022   1.405       .  A
C3022      H3029   1.084       .  S
C3023      C3024   1.393       .  A
C3023      H3030   1.084       .  S
C3024      C3025   1.411       .  A
C3024      H3031   1.083       .  S
C3025      C3026   1.403       .  A
C3026      H3032   1.084   1_455  S
C3033      C3034   1.404       .  A
C3033      C3038   1.415       .  A
C3034      C3035   1.393       .  A
C3034      H3043   1.083       .  S
C3035      C3036   1.401       .  A
C3035      H3044   1.084       .  S
C3036      C3042   1.396       .  A
C3036      C3037   1.409       .  A
C3037      C3039   1.408       .  A
C3037      C3038   1.407       .  A
C3038      H3045   1.084       .  S
C3039      C3040   1.405   1_545  A
C3039      H3046   1.083       .  S
C3040      C3041   1.406       .  A
C3040      H3047   1.083       .  S
C3041      C3042   1.411   1_565  A
C3042      H3048   1.084       .  S
C3049      C3050   1.411       .  A
C3049      C3054   1.408       .  A
C3050      C3051   1.392       .  A
C3050      H3059   1.083       .  S
C3051      C3052   1.396       .  A
C3051      H3060   1.084       .  S
C3052      C3058   1.404       .  A
C3052      C3053   1.416       .  A
C3053      C3055   1.403       .  A
C3053      C3054   1.412       .  A
C3054      H3061   1.084       .  S
C3055      C3056   1.401       .  A
C3055      H3062   1.084       .  S
C3056      C3057   1.408       .  A
C3056      H3063   1.083       .  S
C3057      C3058   1.402       .  A
C3058      H3064   1.084       .  S
C3065      C3066   1.406       .  A
C3065      C3070   1.409       .  A
C3066      C3067   1.403       .  A
C3066      H3075   1.083       .  S
C3067      C3068   1.406       .  A
C3067      H3076   1.084       .  S
C3068      C3074   1.405       .  A
C3068      C3069   1.411       .  A
C3069      C3071   1.401       .  A
C3069      C3070   1.397       .  A
C3070      H3077   1.084       .  S
C3071      C3072   1.393       .  A
C3071      H3078   1.084       .  S
C3072      C3073   1.403       .  A
C3072      H3079   1.083       .  S
C3073      C3074   1.410       .  A
C3074      H3080   1.084   1_545  S
C3081      C3082   1.408       .  A
C3081      C3086   1.403       .  A
C3082      C3083   1.401       .  A
C3082      H3091   1.083       .  S
C3083      C3084   1.403       .  A
C3083      H3092   1.083       .  S
C3084      C3090   1.412       .  A
C3084      C3085   1.415       .  A
C3085      C3087   1.396       .  A
C3085      C3086   1.402       .  A
C3086      H3093   1.085       .  S
C3087      C3088   1.391       .  A
C3087      H3094   1.084       .  S
C3088      C3089   1.412       .  A
C3088      H3095   1.083       .  S
C3089      C3090   1.409       .  A
C3090      H3096   1.084       .  S
C3097      C3098   1.406       .  A
C3097      C3102   1.405       .  A
C3098      C3099   1.392       .  A
C3098      H3107   1.083       .  S
C3099      C3100   1.399       .  A
C3099      H3108   1.084       .  S
C3100      C3106   1.396       .  A
C3100      C3101   1.413       .  A
C3101      C3103   1.401       .  A
C3101      C3102   1.399       .  A
C3102      H3109   1.084       .  S
C3103      C3104   1.395   1_655  A
C3103      H3110   1.084       .  S
C3104      C3105   1.406       .  A
C3104      H3111   1.083       .  S
C3105      C3106   1.405   1_455  A
C3106      H3112   1.084       .  S
C3113      C3114   1.411       .  A
C3113      C3118   1.403       .  A
C3114      C3115   1.400       .  A
C3114      H3123   1.083       .  S
C3115      C3116   1.402       .  A
C3115      H3124   1.084       .  S
C3116      C3122   1.410       .  A
C3116      C3117   1.415       .  A
C3117      C3119   1.395       .  A
C3117      C3118   1.402       .  A
C3118      H3125   1.084       .  S
C3119      C3120   1.390       .  A
C3119      H3126   1.084       .  S
C3120      C3121   1.410       .  A
C3120      H3127   1.083       .  S
C3121      C3122   1.408       .  A
C3122      H3128   1.084       .  S
C3129      C3130   1.409       .  A
C3129      C3134   1.406       .  A
C3130      C3131   1.398       .  A
C3130      H3139   1.083       .  S
C3131      C3132   1.400       .  A
C3131      H3140   1.084       .  S
C3132      C3138   1.407       .  A
C3132      C3133   1.415       .  A
C3133      C3135   1.398       .  A
C3133      C3134   1.403       .  A
C3134      H3141   1.084       .  S
C3135      C3136   1.393       .  A
C3135      H3142   1.084       .  S
C3136      C3137   1.410       .  A
C3136      H3143   1.083       .  S
C3137      C3138   1.406       .  A
C3138      H3144   1.084   1_545  S
C3145      C3146   1.406       .  A
C3145      C3150   1.410       .  A
C3146      C3147   1.404       .  A
C3146      H3155   1.083       .  S
C3147      C3148   1.406       .  A
C3147      H3156   1.083       .  S
C3148      C3154   1.407       .  A
C3148      C3149   1.411       .  A
C3149      C3151   1.400       .  A
C3149      C3150   1.397       .  A
C3150      H3157   1.084       .  S
C3151      C3152   1.392       .  A
C3151      H3158   1.084       .  S
C3152      C3153   1.405       .  A
C3152      H3159   1.083       .  S
C3153      C3154   1.412       .  A
C3154      H3160   1.084       .  S
C3161      C3162   1.407       .  A
C3161      C3166   1.409       .  A
C3162      C3163   1.403       .  A
C3162      H3171   1.083       .  S
C3163      C3164   1.406       .  A
C3163      H3172   1.084       .  S
C3164      C3170   1.409       .  A
C3164      C3165   1.411       .  A
C3165      C3167   1.401       .  A
C3165      C3166   1.402       .  A
C3166      H3173   1.084       .  S
C3167      C3168   1.395       .  A
C3167      H3174   1.084       .  S
C3168      C3169   1.406       .  A
C3168      H3175   1.082       .  S
C3169      C3170   1.413       .  A
C3170      H3176   1.084       .  S
C3177      C3178   1.411       .  A
C3177      C3182   1.410       .  A
C3178      C3179   1.392       .  A
C3178      H3187   1.083       .  S
C3179      C3180   1.397       .  A
C3179      H3188   1.084       .  S
C3180      C3186   1.402       .  A
C3180      C3181   1.414       .  A
C3181      C3183   1.403       .  A
C3181      C3182   1.412       .  A
C3182      H3189   1.084       .  S
C3183      C3184   1.402       .  A
C3183      H3190   1.083       .  S
C3184      C3185   1.410       .  A
C3184      H3191   1.083       .  S
C3185      C3186   1.405       .  A
C3186      H3192   1.084       .  S
C3193      C3194   1.408   1_455  A
C3193      C3198   1.412       .  A
C3194      C3195   1.404       .  A
C3194      H3203   1.083       .  S
C3195      C3196   1.405   1_655  A
C3195      H3204   1.083       .  S
C3196      C3202   1.413       .  A
C3196      C3197   1.412       .  A
C3197      C3199   1.402       .  A
C3197      C3198   1.408       .  A
C3198      H3205   1.084       .  S
C3199      C3200   1.399       .  A
C3199      H3206   1.084       .  S
C3200      C3201   1.408       .  A
C3200      H3207   1.083       .  S
C3201      C3202   1.414       .  A
C3202      H3208   1.084       .  S
C3209      C3210   1.407       .  A
C3209      C3214   1.408       .  A
C3210      C3211   1.401       .  A
C3210      H3219   1.083       .  S
C3211      C3212   1.404       .  A
C3211      H3220   1.084       .  S
C3212      C3218   1.410       .  A
C3212      C3213   1.413       .  A
C3213      C3215   1.403       .  A
C3213      C3214   1.408       .  A
C3214      H3221   1.084   1_655  S
C3215      C3216   1.400       .  A
C3215      H3222   1.084   1_655  S
C3216      C3217   1.406       .  A
C3216      H3223   1.083       .  S
C3217      C3218   1.410       .  A
C3218      H3224   1.084       .  S
C3225      C3226   1.405       .  A
C3225      C3230   1.411       .  A
C3226      C3227   1.394       .  A
C3226      H3235   1.083       .  S
C3227      C3228   1.401       .  A
C3227      H3236   1.084       .  S
C3228      C3234   1.398       .  A
C3228      C3229   1.412       .  A
C3229      C3231   1.406       .  A
C3229      C3230   1.406       .  A
C3230      H3237   1.084       .  S
C3231      C3232   1.402       .  A
C3231      H3238   1.084       .  S
C3232      C3233   1.405       .  A
C3232      H3239   1.083       .  S
C3233      C3234   1.407       .  A
C3234      H3240   1.084       .  S
C3241      C3242   1.412       .  A
C3241      C3246   1.402       .  A
C3242      C3243   1.399       .  A
C3242      H3251   1.082       .  S
C3243      C3244   1.400       .  A
C3243      H3252   1.084       .  S
C3244      C3250   1.412       .  A
C3244      C3245   1.416       .  A
C3245      C3247   1.394       .  A
C3245      C3246   1.405       .  A
C3246      H3253   1.084       .  S
C3247      C3248   1.390       .  A
C3247      H3254   1.084       .  S
C3248      C3249   1.412       .  A
C3248      H3255   1.083       .  S
C3249      C3250   1.407       .  A
C3250      H3256   1.084       .  S
C3257      C3258   1.410       .  A
C3257      C3262   1.404       .  A
C3258      C3259   1.396       .  A
C3258      H3267   1.083       .  S
C3259      C3260   1.399       .  A
C3259      H3268   1.084       .  S
C3260      C3266   1.406       .  A
C3260      C3261   1.416       .  A
C3261      C3263   1.399       .  A
C3261      C3262   1.405       .  A
C3262      H3269   1.084       .  S
C3263      C3264   1.395       .  A
C3263      H3270   1.084       .  S
C3264      C3265   1.408       .  A
C3264      H3271   1.083       .  S
C3265      C3266   1.403       .  A
C3266      H3272   1.084       .  S
C3273      C3274   1.407   1_565  A
C3273      C3278   1.408       .  A
C3274      C3275   1.396       .  A
C3274      H3283   1.083       .  S
C3275      C3276   1.401       .  A
C3275      H3284   1.084       .  S
C3276      C3282   1.402       .  A
C3276      C3277   1.413   1_545  A
C3277      C3279   1.403       .  A
C3277      C3278   1.406       .  A
C3278      H3285   1.084       .  S
C3279      C3280   1.400       .  A
C3279      H3286   1.084       .  S
C3280      C3281   1.407       .  A
C3280      H3287   1.083       .  S
C3281      C3282   1.406   1_565  A
C3282      H3288   1.084       .  S
C3289      C3290   1.409       .  A
C3289      C3294   1.407       .  A
C3290      C3291   1.394       .  A
C3290      H3299   1.084       .  S
C3291      C3292   1.398       .  A
C3291      H3300   1.084       .  S
C3292      C3298   1.408       .  A
C3292      C3293   1.417       .  A
C3293      C3295   1.403       .  A
C3293      C3294   1.413       .  A
C3294      H3301   1.084       .  S
C3295      C3296   1.402       .  A
C3295      H3302   1.084       .  S
C3296      C3297   1.407       .  A
C3296      H3303   1.083       .  S
C3297      C3298   1.403       .  A
C3298      H3304   1.084       .  S
C3305      C3306   1.409       .  A
C3305      C3310   1.402       .  A
C3306      C3307   1.397       .  A
C3306      H3315   1.083       .  S
C3307      C3308   1.400       .  A
C3307      H3316   1.084       .  S
C3308      C3314   1.408       .  A
C3308      C3309   1.417       .  A
C3309      C3311   1.397       .  A
C3309      C3310   1.402       .  A
C3310      H3317   1.084       .  S
C3311      C3312   1.391       .  A
C3311      H3318   1.084       .  S
C3312      C3313   1.409       .  A
C3312      H3319   1.084       .  S
C3313      C3314   1.403       .  A
C3314      H3320   1.084       .  S
C3321      C3322   1.412       .  A
C3321      C3326   1.404       .  A
C3322      C3323   1.396       .  A
C3322      H3331   1.083       .  S
C3323      C3324   1.398       .  A
C3323      H3332   1.084       .  S
C3324      C3330   1.409       .  A
C3324      C3325   1.417       .  A
C3325      C3327   1.398       .  A
C3325      C3326   1.409       .  A
C3326      H3333   1.084       .  S
C3327      C3328   1.396       .  A
C3327      H3334   1.084       .  S
C3328      C3329   1.411       .  A
C3328      H3335   1.083       .  S
C3329      C3330   1.405       .  A
C3330      H3336   1.084       .  S
C3337      C3338   1.405       .  A
C3337      C3342   1.411       .  A
C3338      C3339   1.399       .  A
C3338      H3347   1.083       .  S
C3339      C3340   1.404       .  A
C3339      H3348   1.084       .  S
C3340      C3346   1.402       .  A
C3340      C3341   1.411       .  A
C3341      C3343   1.403       .  A
C3341      C3342   1.401       .  A
C3342      H3349   1.084       .  S
C3343      C3344   1.398       .  A
C3343      H3350   1.084       .  S
C3344      C3345   1.406       .  A
C3344      H3351   1.083       .  S
C3345      C3346   1.410       .  A
C3346      H3352   1.084       .  S
C3353      C3354   1.410       .  A
C3353      C3358   1.406       .  A
C3354      C3355   1.393       .  A
C3354      H3363   1.083       .  S
C3355      C3356   1.397       .  A
C3355      H3364   1.084       .  S
C3356      C3362   1.405       .  A
C3356      C3357   1.415       .  A
C3357      C3359   1.400       .  A
C3357      C3358   1.409       .  A
C3358      H3365   1.084       .  S
C3359      C3360   1.398       .  A
C3359      H3366   1.084       .  S
C3360      C3361   1.411       .  A
C3360      H3367   1.083       .  S
C3361      C3362   1.405       .  A
C3362      H3368   1.084       .  S
C3369      C3370   1.407       .  A
C3369      C3374   1.407       .  A
C3370      C3371   1.390       .  A
C3370      H3379   1.083       .  S
C3371      C3372   1.398       .  A
C3371      H3380   1.084       .  S
C3372      C3378   1.397       .  A
C3372      C3373   1.414       .  A
C3373      C3375   1.402       .  A
C3373      C3374   1.403       .  A
C3374      H3381   1.084       .  S
C3375      C3376   1.398       .  A
C3375      H3382   1.084       .  S
C3376      C3377   1.408       .  A
C3376      H3383   1.083       .  S
C3377      C3378   1.402       .  A
C3378      H3384   1.084       .  S
C3385      C3386   1.409       .  A
C3385      C3390   1.408       .  A
C3386      C3387   1.396       .  A
C3386      H3395   1.083       .  S
C3387      C3388   1.399       .  A
C3387      H3396   1.084       .  S
C3388      C3394   1.407       .  A
C3388      C3389   1.415       .  A
C3389      C3391   1.402       .  A
C3389      C3390   1.412       .  A
C3390      H3397   1.084       .  S
C3391      C3392   1.400       .  A
C3391      H3398   1.084       .  S
C3392      C3393   1.410       .  A
C3392      H3399   1.083       .  S
C3393      C3394   1.406       .  A
C3394      H3400   1.084       .  S
C3401      C3402   1.409       .  A
C3401      C3406   1.404       .  A
C3402      C3403   1.400       .  A
C3402      H3411   1.083       .  S
C3403      C3404   1.402       .  A
C3403      H3412   1.084       .  S
C3404      C3410   1.410       .  A
C3404      C3405   1.415       .  A
C3405      C3407   1.397       .  A
C3405      C3406   1.403       .  A
C3406      H3413   1.084       .  S
C3407      C3408   1.392       .  A
C3407      H3414   1.084       .  S
C3408      C3409   1.410       .  A
C3408      H3415   1.083       .  S
C3409      C3410   1.408       .  A
C3410      H3416   1.084       .  S
C3417      C3418   1.409       .  A
C3417      C3422   1.402       .  A
C3418      C3419   1.397       .  A
C3418      H3427   1.083       .  S
C3419      C3420   1.401       .  A
C3419      H3428   1.084       .  S
C3420      C3426   1.405       .  A
C3420      C3421   1.415       .  A
C3421      C3423   1.397       .  A
C3421      C3422   1.399       .  A
C3422      H3429   1.084       .  S
C3423      C3424   1.391       .  A
C3423      H3430   1.084       .  S
C3424      C3425   1.409       .  A
C3424      H3431   1.083       .  S
C3425      C3426   1.405       .  A
C3426      H3432   1.084       .  S
C3433      C3434   1.406       .  A
C3433      C3438   1.410       .  A
C3434      C3435   1.406       .  A
C3434      H3443   1.083       .  S
C3435      C3436   1.408       .  A
C3435      H3444   1.083       .  S
C3436      C3442   1.407       .  A
C3436      C3437   1.410       .  A
C3437      C3439   1.399       .  A
C3437      C3438   1.393       .  A
C3438      H3445   1.084       .  S
C3439      C3440   1.390       .  A
C3439      H3446   1.084       .  S
C3440      C3441   1.405       .  A
C3440      H3447   1.083       .  S
C3441      C3442   1.413       .  A
C3442      H3448   1.084       .  S
C3449      C3450   1.409       .  A
C3449      C3454   1.402       .  A
C3450      C3451   1.398       .  A
C3450      H3459   1.083       .  S
C3451      C3452   1.401       .  A
C3451      H3460   1.084       .  S
C3452      C3458   1.408       .  A
C3452      C3453   1.416       .  A
C3453      C3455   1.395       .  A
C3453      C3454   1.399       .  A
C3454      H3461   1.084       .  S
C3455      C3456   1.389       .  A
C3455      H3462   1.084       .  S
C3456      C3457   1.410       .  A
C3456      H3463   1.083       .  S
C3457      C3458   1.405       .  A
C3458      H3464   1.084       .  S
C3465      C3466   1.408       .  A
C3465      C3470   1.406       .  A
C3466      C3467   1.402       .  A
C3466      H3475   1.083       .  S
C3467      C3468   1.404       .  A
C3467      H3476   1.084       .  S
C3468      C3474   1.411       .  A
C3468      C3469   1.414       .  A
C3469      C3471   1.400       .  A
C3469      C3470   1.405       .  A
C3470      H3477   1.084       .  S
C3471      C3472   1.395       .  A
C3471      H3478   1.084       .  S
C3472      C3473   1.407       .  A
C3472      H3479   1.083       .  S
C3473      C3474   1.410       .  A
C3474      H3480   1.084       .  S
C3481      C3482   1.412       .  A
C3481      C3486   1.408       .  A
C3482      C3483   1.396       .  A
C3482      H3491   1.083       .  S
C3483      C3484   1.398       .  A
C3483      H3492   1.084       .  S
C3484      C3490   1.409       .  A
C3484      C3485   1.415       .  A
C3485      C3487   1.401       .  A
C3485      C3486   1.412       .  A
C3486      H3493   1.084       .  S
C3487      C3488   1.399       .  A
C3487      H3494   1.084       .  S
C3488      C3489   1.411       .  A
C3488      H3495   1.083       .  S
C3489      C3490   1.407       .  A
C3490      H3496   1.084       .  S
C3497      C3498   1.405       .  A
C3497      C3502   1.409       .  A
C3498      C3499   1.398       .  A
C3498      H3507   1.083       .  S
C3499      C3500   1.402       .  A
C3499      H3508   1.084       .  S
C3500      C3506   1.407       .  A
C3500      C3501   1.414       .  A
C3501      C3503   1.404       .  A
C3501      C3502   1.412       .  A
C3502      H3509   1.084       .  S
C3503      C3504   1.402       .  A
C3503      H3510   1.083       .  S
C3504      C3505   1.407       .  A
C3504      H3511   1.083       .  S
C3505      C3506   1.409       .  A
C3506      H3512   1.084       .  S
C3513      C3514   1.405       .  A
C3513      C3518   1.415       .  A
C3514      C3515   1.403       .  A
C3514      H3523   1.083       .  S
C3515      C3516   1.407       .  A
C3515      H3524   1.084       .  S
C3516      C3522   1.405       .  A
C3516      C3517   1.409       .  A
C3517      C3519   1.405       .  A
C3517      C3518   1.402       .  A
C3518      H3525   1.084       .  S
C3519      C3520   1.399       .  A
C3519      H3526   1.084       .  S
C3520      C3521   1.405       .  A
C3520      H3527   1.083       .  S
C3521      C3522   1.414       .  A
C3522      H3528   1.083       .  S
C3529      C3530   1.410       .  A
C3529      C3534   1.405       .  A
C3530      C3531   1.400       .  A
C3530      H3539   1.083       .  S
C3531      C3532   1.402       .  A
C3531      H3540   1.084       .  S
C3532      C3538   1.410       .  A
C3532      C3533   1.414       .  A
C3533      C3535   1.398       .  A
C3533      C3534   1.404       .  A
C3534      H3541   1.084       .  S
C3535      C3536   1.395       .  A
C3535      H3542   1.084       .  S
C3536      C3537   1.411       .  A
C3536      H3543   1.083       .  S
C3537      C3538   1.409       .  A
C3538      H3544   1.084       .  S
C3545      C3546   1.409   1_565  A
C3545      C3550   1.401       .  A
C3546      C3547   1.402   1_545  A
C3546      H3555   1.083       .  S
C3547      C3548   1.403       .  A
C3547      H3556   1.084   1_565  S
C3548      C3554   1.409       .  A
C3548      C3549   1.414       .  A
C3549      C3551   1.394       .  A
C3549      C3550   1.396       .  A
C3550      H3557   1.084       .  S
C3551      C3552   1.387       .  A
C3551      H3558   1.084       .  S
C3552      C3553   1.409       .  A
C3552      H3559   1.083       .  S
C3553      C3554   1.409       .  A
C3554      H3560   1.084       .  S
C3561      C3562   1.409       .  A
C3561      C3566   1.401       .  A
C3562      C3563   1.398       .  A
C3562      H3571   1.083       .  S
C3563      C3564   1.401       .  A
C3563      H3572   1.083       .  S
C3564      C3570   1.409       .  A
C3564      C3565   1.416       .  A
C3565      C3567   1.396       .  A
C3565      C3566   1.403       .  A
C3566      H3573   1.085       .  S
C3567      C3568   1.391       .  A
C3567      H3574   1.084       .  S
C3568      C3569   1.410       .  A
C3568      H3575   1.083       .  S
C3569      C3570   1.405       .  A
C3570      H3576   1.084       .  S
C3577      C3578   1.408       .  A
C3577      C3582   1.401   1_455  A
C3578      C3579   1.399   1_455  A
C3578      H3587   1.083       .  S
C3579      C3580   1.402       .  A
C3579      H3588   1.084       .  S
C3580      C3586   1.409       .  A
C3580      C3581   1.417       .  A
C3581      C3583   1.397       .  A
C3581      C3582   1.403       .  A
C3582      H3589   1.085       .  S
C3583      C3584   1.392       .  A
C3583      H3590   1.084       .  S
C3584      C3585   1.409       .  A
C3584      H3591   1.083       .  S
C3585      C3586   1.406       .  A
C3586      H3592   1.084       .  S
C3593      C3594   1.405       .  A
C3593      C3598   1.411       .  A
C3594      C3595   1.399       .  A
C3594      H3603   1.083       .  S
C3595      C3596   1.404       .  A
C3595      H3604   1.084       .  S
C3596      C3602   1.403       .  A
C3596      C3597   1.411       .  A
C3597      C3599   1.404       .  A
C3597      C3598   1.405       .  A
C3598      H3605   1.084       .  S
C3599      C3600   1.400       .  A
C3599      H3606   1.084       .  S
C3600      C3601   1.406       .  A
C3600      H3607   1.083       .  S
C3601      C3602   1.411       .  A
C3602      H3608   1.084       .  S
C3609      C3610   1.406       .  A
C3609      C3614   1.404       .  A
C3610      C3611   1.396       .  A
C3610      H3619   1.083       .  S
C3611      C3612   1.401       .  A
C3611      H3620   1.084       .  S
C3612      C3618   1.400       .  A
C3612      C3613   1.413       .  A
C3613      C3615   1.399       .  A
C3613      C3614   1.396       .  A
C3614      H3621   1.084       .  S
C3615      C3616   1.392       .  A
C3615      H3622   1.084       .  S
C3616      C3617   1.407       .  A
C3616      H3623   1.083       .  S
C3617      C3618   1.406       .  A
C3618      H3624   1.084   1_545  S
C3625      C3626   1.410       .  A
C3625      C3630   1.407       .  A
C3626      C3627   1.395       .  A
C3626      H3635   1.083       .  S
C3627      C3628   1.399       .  A
C3627      H3636   1.084       .  S
C3628      C3634   1.404       .  A
C3628      C3629   1.414       .  A
C3629      C3631   1.401       .  A
C3629      C3630   1.407       .  A
C3630      H3637   1.084       .  S
C3631      C3632   1.398       .  A
C3631      H3638   1.084       .  S
C3632      C3633   1.409       .  A
C3632      H3639   1.083       .  S
C3633      C3634   1.407       .  A
C3634      H3640   1.084       .  S
C3641      C3642   1.409       .  A
C3641      C3646   1.405       .  A
C3642      C3643   1.399       .  A
C3642      H3651   1.083       .  S
C3643      C3644   1.402       .  A
C3643      H3652   1.084       .  S
C3644      C3650   1.409       .  A
C3644      C3645   1.415       .  A
C3645      C3647   1.399       .  A
C3645      C3646   1.407       .  A
C3646      H3653   1.084       .  S
C3647      C3648   1.396       .  A
C3647      H3654   1.084       .  S
C3648      C3649   1.410       .  A
C3648      H3655   1.083       .  S
C3649      C3650   1.408       .  A
C3650      H3656   1.084       .  S
C3657      C3658   1.407       .  A
C3657      C3662   1.408   1_565  A
C3658      C3659   1.401   1_565  A
C3658      H3667   1.083       .  S
C3659      C3660   1.405       .  A
C3659      H3668   1.084       .  S
C3660      C3666   1.407       .  A
C3660      C3661   1.412       .  A
C3661      C3663   1.401       .  A
C3661      C3662   1.401       .  A
C3662      H3669   1.084       .  S
C3663      C3664   1.395       .  A
C3663      H3670   1.084       .  S
C3664      C3665   1.407       .  A
C3664      H3671   1.083       .  S
C3665      C3666   1.411       .  A
C3666      H3672   1.084       .  S
C3673      C3674   1.412       .  A
C3673      C3678   1.409       .  A
C3674      C3675   1.403       .  A
C3674      H3683   1.083       .  S
C3675      C3676   1.403       .  A
C3675      H3684   1.083       .  S
C3676      C3682   1.419       .  A
C3676      C3677   1.415       .  A
C3677      C3679   1.399       .  A
C3677      C3678   1.414       .  A
C3678      H3685   1.084       .  S
C3679      C3680   1.399       .  A
C3679      H3686   1.084       .  S
C3680      C3681   1.412       .  A
C3680      H3687   1.083       .  S
C3681      C3682   1.412       .  A
C3682      H3688   1.084       .  S
C3689      C3690   1.407       .  A
C3689      C3694   1.411       .  A
C3690      C3691   1.400       .  A
C3690      H3699   1.083       .  S
C3691      C3692   1.404       .  A
C3691      H3700   1.084       .  S
C3692      C3698   1.406       .  A
C3692      C3693   1.411       .  A
C3693      C3695   1.403       .  A
C3693      C3694   1.405       .  A
C3694      H3701   1.084       .  S
C3695      C3696   1.399       .  A
C3695      H3702   1.084       .  S
C3696      C3697   1.407       .  A
C3696      H3703   1.083       .  S
C3697      C3698   1.411       .  A
C3698      H3704   1.084       .  S
C3705      C3706   1.408       .  A
C3705      C3710   1.410       .  A
C3706      C3707   1.390       .  A
C3706      H3715   1.083       .  S
C3707      C3708   1.397       .  A
C3707      H3716   1.084       .  S
C3708      C3714   1.399       .  A
C3708      C3709   1.413       .  A
C3709      C3711   1.403       .  A
C3709      C3710   1.409       .  A
C3710      H3717   1.084   1_655  S
C3711      C3712   1.402       .  A
C3711      H3718   1.084       .  S
C3712      C3713   1.409       .  A
C3712      H3719   1.083       .  S
C3713      C3714   1.404       .  A
C3714      H3720   1.084       .  S
C3721      C3722   1.406       .  A
C3721      C3726   1.401       .  A
C3722      C3723   1.396       .  A
C3722      H3731   1.083       .  S
C3723      C3724   1.401       .  A
C3723      H3732   1.084       .  S
C3724      C3730   1.400       .  A
C3724      C3725   1.414       .  A
C3725      C3727   1.398       .  A
C3725      C3726   1.395       .  A
C3726      H3733   1.085       .  S
C3727      C3728   1.391       .  A
C3727      H3734   1.084       .  S
C3728      C3729   1.407       .  A
C3728      H3735   1.083       .  S
C3729      C3730   1.406       .  A
C3730      H3736   1.084       .  S
C3737      C3738   1.410       .  A
C3737      C3742   1.406       .  A
C3738      C3739   1.396       .  A
C3738      H3747   1.083       .  S
C3739      C3740   1.399       .  A
C3739      H3748   1.084       .  S
C3740      C3746   1.409       .  A
C3740      C3741   1.417       .  A
C3741      C3743   1.400       .  A
C3741      C3742   1.411       .  A
C3742      H3749   1.084   1_545  S
C3743      C3744   1.398       .  A
C3743      H3750   1.084       .  S
C3744      C3745   1.410       .  A
C3744      H3751   1.084       .  S
C3745      C3746   1.403       .  A
C3746      H3752   1.084       .  S
C3753      C3754   1.405       .  A
C3753      C3758   1.410       .  A
C3754      C3755   1.396       .  A
C3754      H3763   1.083       .  S
C3755      C3756   1.402       .  A
C3755      H3764   1.084       .  S
C3756      C3762   1.400       .  A
C3756      C3757   1.412       .  A
C3757      C3759   1.403       .  A
C3757      C3758   1.402       .  A
C3758      H3765   1.084       .  S
C3759      C3760   1.398       .  A
C3759      H3766   1.084       .  S
C3760      C3761   1.405       .  A
C3760      H3767   1.083       .  S
C3761      C3762   1.407       .  A
C3762      H3768   1.084       .  S
C3769      C3770   1.409       .  A
C3769      C3774   1.412       .  A
C3770      C3771   1.398   1_545  A
C3770      H3779   1.083       .  S
C3771      C3772   1.401       .  A
C3771      H3780   1.084       .  S
C3772      C3778   1.409       .  A
C3772      C3773   1.413       .  A
C3773      C3775   1.403       .  A
C3773      C3774   1.413   1_565  A
C3774      H3781   1.084       .  S
C3775      C3776   1.402       .  A
C3775      H3782   1.083       .  S
C3776      C3777   1.409       .  A
C3776      H3783   1.083       .  S
C3777      C3778   1.410       .  A
C3778      H3784   1.084       .  S
C3785      C3786   1.408       .  A
C3785      C3790   1.414       .  A
C3786      C3787   1.401       .  A
C3786      H3795   1.083       .  S
C3787      C3788   1.404       .  A
C3787      H3796   1.084       .  S
C3788      C3794   1.409       .  A
C3788      C3789   1.411       .  A
C3789      C3791   1.405       .  A
C3789      C3790   1.411       .  A
C3790      H3797   1.084       .  S
C3791      C3792   1.403       .  A
C3791      H3798   1.083       .  S
C3792      C3793   1.407       .  A
C3792      H3799   1.083       .  S
C3793      C3794   1.414       .  A
C3794      H3800   1.084       .  S
C3801      C3802   1.411       .  A
C3801      C3806   1.407       .  A
C3802      C3803   1.404       .  A
C3802      H3811   1.083       .  S
C3803      C3804   1.404       .  A
C3803      H3812   1.084       .  S
C3804      C3810   1.413       .  A
C3804      C3805   1.414       .  A
C3805      C3807   1.398       .  A
C3805      C3806   1.405       .  A
C3806      H3813   1.084       .  S
C3807      C3808   1.394       .  A
C3807      H3814   1.084       .  S
C3808      C3809   1.409       .  A
C3808      H3815   1.083       .  S
C3809      C3810   1.412       .  A
C3810      H3816   1.084       .  S
C3817      C3818   1.408       .  A
C3817      C3822   1.410       .  A
C3818      C3819   1.402       .  A
C3818      H3827   1.083       .  S
C3819      C3820   1.404       .  A
C3819      H3828   1.083       .  S
C3820      C3826   1.410       .  A
C3820      C3821   1.412       .  A
C3821      C3823   1.401       .  A
C3821      C3822   1.404       .  A
C3822      H3829   1.084       .  S
C3823      C3824   1.396       .  A
C3823      H3830   1.084       .  S
C3824      C3825   1.409       .  A
C3824      H3831   1.083       .  S
C3825      C3826   1.411       .  A
C3826      H3832   1.084       .  S
C3833      C3834   1.406       .  A
C3833      C3838   1.404       .  A
C3834      C3835   1.398   1_655  A
C3834      H3843   1.083       .  S
C3835      C3836   1.402       .  A
C3835      H3844   1.084       .  S
C3836      C3842   1.404       .  A
C3836      C3837   1.414       .  A
C3837      C3839   1.400       .  A
C3837      C3838   1.400   1_455  A
C3838      H3845   1.085       .  S
C3839      C3840   1.394       .  A
C3839      H3846   1.084       .  S
C3840      C3841   1.407       .  A
C3840      H3847   1.083       .  S
C3841      C3842   1.407       .  A
C3842      H3848   1.084       .  S
C3849      C3850   1.406       .  A
C3849      C3854   1.406       .  A
C3850      C3851   1.399       .  A
C3850      H3859   1.083       .  S
C3851      C3852   1.403       .  A
C3851      H3860   1.084       .  S
C3852      C3858   1.404       .  A
C3852      C3853   1.413       .  A
C3853      C3855   1.399       .  A
C3853      C3854   1.397       .  A
C3854      H3861   1.084       .  S
C3855      C3856   1.392       .  A
C3855      H3862   1.084       .  S
C3856      C3857   1.406       .  A
C3856      H3863   1.083       .  S
C3857      C3858   1.407       .  A
C3858      H3864   1.084       .  S
C3865      C3866   1.406       .  A
C3865      C3870   1.414       .  A
C3866      C3867   1.399       .  A
C3866      H3875   1.083       .  S
C3867      C3868   1.404       .  A
C3867      H3876   1.084       .  S
C3868      C3874   1.403       .  A
C3868      C3869   1.410       .  A
C3869      C3871   1.406       .  A
C3869      C3870   1.406       .  A
C3870      H3877   1.084   1_455  S
C3871      C3872   1.402       .  A
C3871      H3878   1.083       .  S
C3872      C3873   1.405   1_565  A
C3872      H3879   1.083   1_565  S
C3873      C3874   1.413   1_545  A
C3874      H3880   1.084       .  S
C3881      C3882   1.410       .  A
C3881      C3886   1.405       .  A
C3882      C3883   1.393       .  A
C3882      H3891   1.083       .  S
C3883      C3884   1.398       .  A
C3883      H3892   1.084       .  S
C3884      C3890   1.404       .  A
C3884      C3885   1.415       .  A
C3885      C3887   1.400       .  A
C3885      C3886   1.406       .  A
C3886      H3893   1.084       .  S
C3887      C3888   1.397       .  A
C3887      H3894   1.084       .  S
C3888      C3889   1.409       .  A
C3888      H3895   1.083       .  S
C3889      C3890   1.404       .  A
C3890      H3896   1.084       .  S
C3897      C3898   1.405       .  A
C3897      C3902   1.413       .  A
C3898      C3899   1.403       .  A
C3898      H3907   1.083       .  S
C3899      C3900   1.406       .  A
C3899      H3908   1.083       .  S
C3900      C3906   1.407       .  A
C3900      C3901   1.410       .  A
C3901      C3903   1.404       .  A
C3901      C3902   1.405       .  A
C3902      H3909   1.084       .  S
C3903      C3904   1.400       .  A
C3903      H3910   1.084       .  S
C3904      C3905   1.406       .  A
C3904      H3911   1.083       .  S
C3905      C3906   1.415       .  A
C3906      H3912   1.084       .  S
C3913      C3914   1.410       .  A
C3913      C3918   1.412       .  A
C3914      C3915   1.403       .  A
C3914      H3923   1.083       .  S
C3915      C3916   1.403       .  A
C3915      H3924   1.083       .  S
C3916      C3922   1.416       .  A
C3916      C3917   1.414       .  A
C3917      C3919   1.402       .  A
C3917      C3918   1.414       .  A
C3918      H3925   1.084       .  S
C3919      C3920   1.400       .  A
C3919      H3926   1.083       .  S
C3920      C3921   1.410       .  A
C3920      H3927   1.083       .  S
C3921      C3922   1.413       .  A
C3922      H3928   1.084       .  S
C3929      C3930   1.408   1_545  A
C3929      C3934   1.408   1_545  A
C3930      C3931   1.392       .  A
C3930      H3939   1.083   1_565  S
C3931      C3932   1.397       .  A
C3931      H3940   1.084       .  S
C3932      C3938   1.404       .  A
C3932      C3933   1.416       .  A
C3933      C3935   1.404       .  A
C3933      C3934   1.412       .  A
C3934      H3941   1.084   1_565  S
C3935      C3936   1.402       .  A
C3935      H3942   1.084       .  S
C3936      C3937   1.408       .  A
C3936      H3943   1.083       .  S
C3937      C3938   1.402       .  A
C3938      H3944   1.084       .  S
C3945      C3946   1.405       .  A
C3945      C3950   1.412       .  A
C3946      C3947   1.395       .  A
C3946      H3955   1.083       .  S
C3947      C3948   1.402       .  A
C3947      H3956   1.084       .  S
C3948      C3954   1.400       .  A
C3948      C3949   1.411       .  A
C3949      C3951   1.407       .  A
C3949      C3950   1.408       .  A
C3950      H3957   1.084       .  S
C3951      C3952   1.404       .  A
C3951      H3958   1.083       .  S
C3952      C3953   1.405       .  A
C3952      H3959   1.083       .  S
C3953      C3954   1.412       .  A
C3954      H3960   1.084       .  S
C3961      C3962   1.408       .  A
C3961      C3966   1.409       .  A
C3962      C3963   1.401       .  A
C3962      H3971   1.083       .  S
C3963      C3964   1.403       .  A
C3963      H3972   1.083       .  S
C3964      C3970   1.409       .  A
C3964      C3965   1.413       .  A
C3965      C3967   1.400       .  A
C3965      C3966   1.405       .  A
C3966      H3973   1.084       .  S
C3967      C3968   1.396       .  A
C3967      H3974   1.084       .  S
C3968      C3969   1.409       .  A
C3968      H3975   1.083       .  S
C3969      C3970   1.410       .  A
C3970      H3976   1.084   1_455  S
C3977      C3978   1.409       .  A
C3977      C3982   1.411       .  A
C3978      C3979   1.394       .  A
C3978      H3987   1.083       .  S
C3979      C3980   1.399       .  A
C3979      H3988   1.084       .  S
C3980      C3986   1.402       .  A
C3980      C3981   1.412       .  A
C3981      C3983   1.405       .  A
C3981      C3982   1.410       .  A
C3982      H3989   1.084       .  S
C3983      C3984   1.402       .  A
C3983      H3990   1.083       .  S
C3984      C3985   1.407       .  A
C3984      H3991   1.083       .  S
C3985      C3986   1.408       .  A
C3986      H3992   1.084       .  S
C3993      C3994   1.411       .  A
C3993      C3998   1.409       .  A
C3994      C3995   1.395   1_455  A
C3994      H4003   1.083       .  S
C3995      C3996   1.399       .  A
C3995      H4004   1.084       .  S
C3996      C4002   1.406       .  A
C3996      C3997   1.414       .  A
C3997      C3999   1.402       .  A
C3997      C3998   1.411   1_655  A
C3998      H4005   1.084       .  S
C3999      C4000   1.400       .  A
C3999      H4006   1.083   1_655  S
C4000      C4001   1.409       .  A
C4000      H4007   1.083       .  S
C4001      C4002   1.407       .  A
C4002      H4008   1.084       .  S
C4009      C4010   1.408       .  A
C4009      C4014   1.411       .  A
C4010      C4011   1.390       .  A
C4010      H4019   1.083       .  S
C4011      C4012   1.397       .  A
C4011      H4020   1.084       .  S
C4012      C4018   1.399       .  A
C4012      C4013   1.413       .  A
C4013      C4015   1.405       .  A
C4013      C4014   1.410       .  A
C4014      H4021   1.084       .  S
C4015      C4016   1.404       .  A
C4015      H4022   1.084       .  S
C4016      C4017   1.409       .  A
C4016      H4023   1.083       .  S
C4017      C4018   1.406       .  A
C4018      H4024   1.084       .  S
C4025      C4026   1.406       .  A
C4025      C4030   1.411       .  A
C4026      C4027   1.391       .  A
C4026      H4035   1.083       .  S
C4027      C4028   1.398       .  A
C4027      H4036   1.084       .  S
C4028      C4034   1.397   1_455  A
C4028      C4029   1.413       .  A
C4029      C4031   1.406       .  A
C4029      C4030   1.411       .  A
C4030      H4037   1.084       .  S
C4031      C4032   1.404   1_455  A
C4031      H4038   1.083       .  S
C4032      C4033   1.407       .  A
C4032      H4039   1.083       .  S
C4033      C4034   1.406       .  A
C4034      H4040   1.084       .  S
C4041      C4042   1.407       .  A
C4041      C4046   1.405       .  A
C4042      C4043   1.397       .  A
C4042      H4051   1.083       .  S
C4043      C4044   1.401       .  A
C4043      H4052   1.084       .  S
C4044      C4050   1.404       .  A
C4044      C4045   1.414       .  A
C4045      C4047   1.397       .  A
C4045      C4046   1.398       .  A
C4046      H4053   1.084       .  S
C4047      C4048   1.391       .  A
C4047      H4054   1.084       .  S
C4048      C4049   1.410       .  A
C4048      H4055   1.083       .  S
C4049      C4050   1.405       .  A
C4050      H4056   1.084       .  S
C4057      C4058   1.405       .  A
C4057      C4062   1.410       .  A
C4058      C4059   1.404       .  A
C4058      H4067   1.083       .  S
C4059      C4060   1.407       .  A
C4059      H4068   1.084       .  S
C4060      C4066   1.405       .  A
C4060      C4061   1.410       .  A
C4061      C4063   1.402       .  A
C4061      C4062   1.396       .  A
C4062      H4069   1.084       .  S
C4063      C4064   1.393       .  A
C4063      H4070   1.084       .  S
C4064      C4065   1.402       .  A
C4064      H4071   1.083       .  S
C4065      C4066   1.412       .  A
C4066      H4072   1.084       .  S
C4073      C4074   1.405       .  A
C4073      C4078   1.405       .  A
C4074      C4075   1.395       .  A
C4074      H4083   1.083       .  S
C4075      C4076   1.401       .  A
C4075      H4084   1.084       .  S
C4076      C4082   1.400       .  A
C4076      C4077   1.414       .  A
C4077      C4079   1.403       .  A
C4077      C4078   1.404       .  A
C4078      H4085   1.084       .  S
C4079      C4080   1.399       .  A
C4079      H4086   1.083       .  S
C4080      C4081   1.404       .  A
C4080      H4087   1.083       .  S
C4081      C4082   1.404       .  A
C4082      H4088   1.085       .  S
C4089      C4090   1.409       .  A
C4089      C4094   1.409       .  A
C4090      C4091   1.399       .  A
C4090      H4099   1.083       .  S
C4091      C4092   1.401       .  A
C4091      H4100   1.084       .  S
C4092      C4098   1.410       .  A
C4092      C4093   1.414       .  A
C4093      C4095   1.401       .  A
C4093      C4094   1.409       .  A
C4094      H4101   1.084       .  S
C4095      C4096   1.399   1_545  A
C4095      H4102   1.084   1_545  S
C4096      C4097   1.410   1_565  A
C4096      H4103   1.083       .  S
C4097      C4098   1.409       .  A
C4098      H4104   1.084       .  S
