geometry optimzed in LAMMPS
_audit_creation_date              2020-12-01 
_audit_creation_method            'lammps2cif' 
_symmetry_space_group_name_H-M    'P1' 
_symmetry_Int_Tables_number       1 
_symmetry_cell_setting            triclinic 
loop_ 
_symmetry_equiv_pos_as_xyz 
  x,y,z 
_cell_length_a                    37.05870797 
_cell_length_b                    36.62390065660553 
_cell_length_c                    50.71595578072082 
_cell_angle_alpha                 89.72554949122804 
_cell_angle_beta                  90.78154994739711 
_cell_angle_gamma                 120.07622422475369 
loop_ 
_atom_site_label 
_atom_site_type_symbol 
_atom_site_fract_x 
_atom_site_fract_y 
_atom_site_fract_z 
_atom_site_charge 
Fe1        Fe  0.43107410  0.60813021  0.59955285     1.65800
Fe2        Fe  0.50547366  0.58201899  0.60374063     1.73200
Fe3        Fe  0.49578186  0.63117277  0.54829297     1.54400
O4          O  0.43234614  0.59636307  0.53423818    -0.81900
O5          O  0.56252675  0.63476347  0.59835868    -0.80200
O6          O  0.39340808  0.56968853  0.57059790    -0.84400
O7          O  0.43584402  0.65889496  0.57866536    -0.79200
O8          O  0.50139599  0.58106543  0.53581154    -0.81000
O9          O  0.50077239  0.60883252  0.63931505    -0.83700
C10         C  0.46054267  0.68627504  0.56262915     0.97000
C11         C  0.39756995  0.57155674  0.54572150     1.04500
O12         O  0.47788674  0.60730582  0.58361826    -1.12700
O13         O  0.45100697  0.52694881  0.61212057    -0.75200
O14         O  0.41436566  0.55669890  0.62351379    -0.78600
O15         O  0.49189897  0.68528957  0.55405712    -0.79300
C16         C  0.42204695  0.52682451  0.62506464     0.95900
O17         O  0.46943496  0.64585079  0.62907639    -0.77300
O18         O  0.51132062  0.55071325  0.57088114    -0.82500
C19         C  0.57930987  0.66410898  0.58152176     0.98500
C20         C  0.50678532  0.55256447  0.54605972     1.04500
O21         O  0.55953149  0.66636135  0.56107892    -0.78100
C22         C  0.48763457  0.63389480  0.64560505     1.02800
Fe23       Fe  0.88911640  0.84056393  0.58972657     1.65800
Fe24       Fe  0.81753839  0.73546247  0.59352482     1.73200
Fe25       Fe  0.83581131  0.79907591  0.64586012     1.54400
O26         O  0.90042643  0.82377762  0.65622869    -0.81900
O27         O  0.76351346  0.72041524  0.61270797    -0.80200
O28         O  0.93331434  0.85116878  0.61768444    -0.84400
O29         O  0.87934227  0.88609362  0.60646567    -0.79200
O30         O  0.82252642  0.73923625  0.65735015    -0.81000
O31         O  0.79884708  0.76007807  0.56266581    -0.83700
C32         C  0.86545540  0.89025725  0.62811608     0.97000
C33         C  0.93378275  0.84361876  0.64219317     1.04500
O34         O  0.84861310  0.79197157  0.60973713    -1.12700
O35         O  0.86575882  0.73942542  0.57181858    -0.75200
O36         O  0.91016109  0.80782780  0.56826057    -0.78600
O37         O  0.84646745  0.85975725  0.64366596    -0.79300
C38         C  0.89875764  0.76993358  0.56291499     0.95900
O39         O  0.84450437  0.82999640  0.56196588    -0.77300
O40         O  0.83387212  0.70812001  0.62362622    -0.82500
C41         C  0.75006215  0.74465849  0.61911616     0.98500
C42         C  0.82745196  0.70998758  0.64797825     1.04500
O43         O  0.77296332  0.77755393  0.63317146    -0.78100
C44         C  0.81152331  0.79727824  0.55397391     1.02800
Fe45       Fe  0.75082677  0.44466368  0.76011135     1.65800
Fe46       Fe  0.82187004  0.54645386  0.77289070     1.73200
Fe47       Fe  0.81968513  0.50295120  0.71471496     1.54400
O48         O  0.80046567  0.43843905  0.71017658    -0.81900
O49         O  0.81083832  0.58100338  0.74478957    -0.80200
O50         O  0.77852344  0.41008052  0.74946994    -0.84400
O51         O  0.72325718  0.43509258  0.72341235    -0.79200
O52         O  0.87676816  0.51537099  0.73259697    -0.81000
O53         O  0.76653792  0.53161299  0.79116546    -0.83700
C54         C  0.72631257  0.46299690  0.70726983     0.97000
C55         C  0.78763221  0.40722159  0.72583777     1.04500
O56         O  0.79787140  0.49750386  0.74977634    -1.12700
O57         O  0.83207521  0.51372163  0.80219856    -0.75200
O58         O  0.77456594  0.45048157  0.79776441    -0.78600
O59         O  0.76186127  0.49289664  0.69995511    -0.79300
C60         C  0.80620856  0.47726495  0.81090825     0.95900
O61         O  0.71836149  0.47382104  0.77093228    -0.77300
O62         O  0.88122651  0.56611694  0.75873955    -0.82500
C63         C  0.82525611  0.58778911  0.72163238     0.98500
C64         C  0.89685022  0.54458929  0.74983958     1.04500
O65         O  0.84112113  0.56709209  0.71217034    -0.78100
C66         C  0.72886084  0.50295290  0.78778090     1.02800
Fe67       Fe  0.21450377  0.69065786  0.75325693     1.65800
Fe68       Fe  0.13387642  0.70805387  0.75339715     1.73200
Fe69       Fe  0.15874916  0.67052736  0.80878572     1.54400
O70         O  0.16509458  0.61811519  0.80342306    -0.81900
O71         O  0.12768386  0.73901698  0.78615604    -0.80200
O72         O  0.21602235  0.64246316  0.77456864    -0.84400
O73         O  0.25550901  0.73313120  0.77921107    -0.79200
O74         O  0.09308675  0.63077747  0.80117704    -0.81000
O75         O  0.18366988  0.76515192  0.74201931    -0.83700
C76         C  0.25613404  0.73523170  0.80417051     0.97000
C77         C  0.19470406  0.61659302  0.79249566     1.04500
O78         O  0.16870718  0.68957955  0.77209475    -1.12700
O79         O  0.13686525  0.68040602  0.71780407    -0.75200
O80         O  0.17377365  0.64860929  0.72659406    -0.78600
O81         O  0.22413428  0.71071056  0.81823514    -0.79300
C82         C  0.15190933  0.65720136  0.71108338     0.95900
O83         O  0.22330385  0.73984401  0.72829917    -0.77300
O84         O  0.08113214  0.65287004  0.76241667    -0.82500
C85         C  0.13798597  0.74171381  0.81044294     0.98500
C86         C  0.06893539  0.62742812  0.78166092     1.04500
O87         O  0.15153781  0.71935828  0.82045990    -0.78100
C88         C  0.21192787  0.76729114  0.72730610     1.02800
Fe89       Fe  0.10843480  0.95142764  0.93345599     1.65800
Fe90       Fe  0.17883868  0.91860758  0.93196536     1.73200
Fe91       Fe  0.16365814  0.96289231  0.87887406     1.54400
O92         O  0.10147758  0.91939480  0.86785122    -0.81900
O93         O  0.23088143  0.95409882  0.90971560    -0.80200
O94         O  0.06766573  0.92769891  0.90179088    -0.84400
O95         O  0.13107190  0.01286469  0.92096073    -0.79200
O96         O  0.17891600  0.91690345  0.87013469    -0.81000
O97         O  0.20131153  0.96407022  0.96178826    -0.83700
C98         C  0.13773145  0.02685232  0.89760791     0.97000
C99         C  0.06785745  0.91140000  0.87968226     1.04500
O100        O  0.14967186  0.94438435  0.91513049    -1.12700
O101        O  0.13194317  0.87969762  0.95664071    -0.75200
O102        O  0.07973232  0.89120563  0.94882787    -0.78600
O103        O  0.14827335  0.01004281  0.87983205    -0.79300
C104        C  0.09537963  0.87189710  0.96092109     0.95900
O105        O  0.14644642  0.97406216  0.96628790    -0.77300
O106        O  0.15492465  0.87209585  0.90313986    -0.82500
C107        C  0.24665999  0.99322557  0.90581877     0.98500
C108        C  0.16215212  0.87938190  0.87863090     1.04500
O109        O  0.22541227  0.00606364  0.89260258    -0.78100
C110        C  0.18101034  0.97812622  0.97428920     1.02800
Fe111      Fe  0.56699363  0.16205019  0.92762085     1.65800
Fe112      Fe  0.48571295  0.06414551  0.92019890     1.73200
Fe113      Fe  0.50015683  0.11868022  0.97800784     1.54400
O114        O  0.56218737  0.14012120  0.99245159    -0.81900
O115        O  0.43133496  0.06376383  0.92655127    -0.80200
O116        O  0.60135479  0.15463832  0.95618628    -0.84400
O117        O  0.56582760  0.20847828  0.94970764    -0.79200
O118        O  0.48746982  0.05922547  0.98749210    -0.81000
O119        O  0.49329377  0.10073888  0.88646882    -0.83700
C120        C  0.54348988  0.21215349  0.96683815     0.97000
C121        C  0.59639753  0.14901143  0.98089337     1.04500
O122        O  0.51704807  0.11485844  0.94211957    -1.12700
O123        O  0.53701594  0.05918033  0.91135144    -0.75200
O124        O  0.58002799  0.12640539  0.90271426    -0.78600
O125        O  0.51124293  0.18005198  0.97542395    -0.79300
C126        C  0.56869154  0.08788535  0.90004581     0.95900
O127        O  0.53261965  0.16869974  0.89823324    -0.77300
O128        O  0.47491504  0.02175534  0.95089777    -0.82500
C129        C  0.41652675  0.07633428  0.94438859     0.98500
C130        C  0.47839918  0.02521075  0.97584210     1.04500
O131        O  0.43743197  0.09639768  0.96508640    -0.78100
C132        C  0.50947768  0.14017476  0.88175686     1.02800
Fe133      Fe  0.11829762  0.11649458  0.44089467     1.65800
Fe134      Fe  0.17292459  0.22320792  0.43667155     1.73200
Fe135      Fe  0.15570824  0.16381960  0.38269051     1.54400
O136        O  0.14603158  0.10343099  0.38010528    -0.81900
O137        O  0.14843146  0.24609090  0.40836290    -0.80200
O138        O  0.13432745  0.07816530  0.42027175    -0.84400
O139        O  0.06741936  0.10089499  0.41647887    -0.79200
O140        O  0.21978263  0.18835952  0.39176881    -0.81000
O141        O  0.12275890  0.21063841  0.45993390    -0.83700
C142        C  0.06129093  0.11453165  0.39447416     0.97000
C143        C  0.13878546  0.07422970  0.39605802     1.04500
O144        O  0.14813816  0.16742561  0.42027955    -1.12700
O145        O  0.19956717  0.20466670  0.46673136    -0.75200
O146        O  0.16992412  0.13408647  0.46465375    -0.78600
O147        O  0.09065890  0.13846046  0.37849666    -0.79300
C148        C  0.19749367  0.17003824  0.47355024     0.95900
O149        O  0.09487268  0.14205565  0.46706126    -0.77300
O150        O  0.22595543  0.24290201  0.41468062    -0.82500
C151        C  0.15483943  0.24710252  0.38381570     0.98500
C152        C  0.24139645  0.22102545  0.40640045     1.04500
O153        O  0.16587352  0.22309577  0.37337907    -0.78100
C154        C  0.09770348  0.17724570  0.47185859     1.02800
Fe155      Fe  0.55599045  0.35143126  0.42253051     1.65800
Fe156      Fe  0.48623443  0.38332675  0.41760568     1.73200
Fe157      Fe  0.49543498  0.33810547  0.47437877     1.54400
O158        O  0.49358951  0.28121451  0.46983576    -0.81900
O159        O  0.48670373  0.42119933  0.44871357    -0.80200
O160        O  0.55135863  0.30357330  0.44760320    -0.84400
O161        O  0.59658981  0.39428354  0.44885172    -0.79200
O162        O  0.43147391  0.30475617  0.46311785    -0.81000
O163        O  0.54185951  0.43422245  0.40698211    -0.83700
C164        C  0.59406847  0.39355934  0.47390395     0.97000
C165        C  0.52438891  0.27766660  0.46347736     1.04500
O166        O  0.51209144  0.35753042  0.43844278    -1.12700
O167        O  0.48304334  0.34683224  0.38440196    -0.75200
O168        O  0.51329829  0.30911476  0.39649208    -0.78600
O169        O  0.55981249  0.37041439  0.48639259    -0.79300
C170        C  0.48944143  0.31572797  0.38127824     0.95900
O171        O  0.57089155  0.39789263  0.39398980    -0.77300
O172        O  0.42846501  0.33522562  0.42548825    -0.82500
C173        C  0.49190298  0.42111137  0.47359430     0.98500
C174        C  0.41184402  0.30651063  0.44255987     1.04500
O175        O  0.49474645  0.39178478  0.48495500    -0.78100
C176        C  0.56548255  0.42929530  0.39173045     1.02800
Fe177      Fe  0.77839780  0.29102631  0.26249634     1.65800
Fe178      Fe  0.84012268  0.24789562  0.26719329     1.73200
Fe179      Fe  0.83158493  0.29004346  0.21040226     1.54400
O180        O  0.76885721  0.24770361  0.19991049    -0.81900
O181        O  0.89304102  0.27823915  0.24505428    -0.80200
O182        O  0.73820264  0.26713777  0.23040159    -0.84400
O183        O  0.80838457  0.35127585  0.24761786    -0.79200
O184        O  0.84316568  0.24075596  0.20525412    -0.81000
O185        O  0.86525984  0.29608807  0.29507544    -0.83700
C186        C  0.81357822  0.36171255  0.22357135     0.97000
C187        C  0.73627735  0.24393425  0.21114787     1.04500
O188        O  0.81586133  0.27591646  0.24701177    -1.12700
O189        O  0.79028850  0.21500831  0.29236623    -0.75200
O190        O  0.74412453  0.23323388  0.27947581    -0.78600
O191        O  0.82007694  0.34019398  0.20687739    -0.79300
C192        C  0.75542570  0.21318250  0.29465862     0.95900
O193        O  0.81532356  0.31383902  0.29581269    -0.77300
O194        O  0.81578889  0.19882693  0.23999971    -0.82500
C195        C  0.91135087  0.31742293  0.24061485     0.98500
C196        C  0.82659782  0.20458195  0.21590971     1.04500
O197        O  0.89344998  0.33133282  0.22495507    -0.78100
C198        C  0.84765287  0.31470721  0.30546174     1.02800
Fe199      Fe  0.21092965  0.50785378  0.25857674     1.65800
Fe200      Fe  0.14680425  0.40352210  0.25986536     1.73200
Fe201      Fe  0.16197387  0.46262143  0.31497199     1.54400
O202        O  0.22839950  0.49304569  0.32199227    -0.81900
O203        O  0.08944629  0.38941299  0.27278775    -0.80200
O204        O  0.25768669  0.51209089  0.28161396    -0.84400
O205        O  0.20951368  0.55252375  0.28264209    -0.79200
O206        O  0.15841137  0.40721623  0.32604222    -0.81000
O207        O  0.13495387  0.43128020  0.22738109    -0.83700
C208        C  0.18960398  0.55295678  0.30249520     0.97000
C209        C  0.25988250  0.50651694  0.30625719     1.04500
O210        O  0.17307902  0.45776610  0.27818775    -1.12700
O211        O  0.20163068  0.41212861  0.24427695    -0.75200
O212        O  0.22474361  0.47700060  0.23009544    -0.78600
O213        O  0.16256955  0.51928529  0.31301257    -0.79300
C214        C  0.22464106  0.44249390  0.22938290     0.95900
O215        O  0.16183172  0.50031871  0.23599302    -0.77300
O216        O  0.15485094  0.37034167  0.29067854    -0.82500
C217        C  0.07431999  0.40418532  0.28900053     0.98500
C218        C  0.15743775  0.37565429  0.31552491     1.04500
O219        O  0.09657618  0.43213910  0.30651171    -0.78100
C220        C  0.13727350  0.46687955  0.22317818     1.02800
Fe221      Fe  0.88613817  0.01449330  0.09066592     1.65800
Fe222      Fe  0.81595481  0.04657428  0.08798116     1.73200
Fe223      Fe  0.82618211  0.99852763  0.14377699     1.54400
O224        O  0.82774447  0.94342949  0.13968326    -0.81900
O225        O  0.81143090  0.07906610  0.12005951    -0.80200
O226        O  0.87754688  0.96116807  0.11052088    -0.84400
O227        O  0.92679232  0.05133316  0.11904919    -0.79200
O228        O  0.76273903  0.96433010  0.13170319    -0.81000
O229        O  0.87087269  0.10006340  0.07930717    -0.83700
C230        C  0.92416557  0.05224390  0.14393643     0.97000
C231        C  0.85403323  0.93692541  0.12831416     1.04500
O232        O  0.84254110  0.01977526  0.10781315    -1.12700
O233        O  0.81666901  0.01743971  0.05261976    -0.75200
O234        O  0.84569457  0.97786959  0.06158136    -0.78600
O235        O  0.88971919  0.03167040  0.15650815    -0.79300
C236        C  0.82572705  0.98931515  0.04637238     0.95900
O237        O  0.90486409  0.06752352  0.06776210    -0.77300
O238        O  0.75947794  0.99595136  0.09454051    -0.82500
C239        C  0.81621150  0.07745814  0.14474597     0.98500
C240        C  0.74300376  0.96671005  0.11136303     1.04500
O241        O  0.82244045  0.04984248  0.15537318    -0.78100
C242        C  0.89946081  0.09905263  0.06677123     1.02800
Fe243      Fe  0.43979761  0.78795787  0.11595370     1.65800
Fe244      Fe  0.49868938  0.89087366  0.10927365     1.73200
Fe245      Fe  0.48434617  0.82496512  0.05791048     1.54400
O246        O  0.49309949  0.77502305  0.06638373    -0.81900
O247        O  0.49085358  0.91880836  0.07548652    -0.80200
O248        O  0.44161516  0.74100820  0.09369081    -0.84400
O249        O  0.39153888  0.77993717  0.09324375    -0.79200
O250        O  0.54928520  0.86225186  0.06425270    -0.81000
O251        O  0.44119993  0.88073417  0.12080754    -0.83700
C252        C  0.38748028  0.77329070  0.06855969     0.97000
C253        C  0.46454251  0.74095872  0.07545770     1.04500
O254        O  0.47470391  0.83503517  0.09382219    -1.12700
O255        O  0.51104650  0.86864968  0.14499594    -0.75200
O256        O  0.49118007  0.80058383  0.13785076    -0.78600
O257        O  0.41837537  0.78487400  0.05270488    -0.79300
C258        C  0.51259395  0.83516688  0.15042365     0.95900
O259        O  0.42676577  0.82272752  0.14201686    -0.77300
O260        O  0.55615301  0.90356587  0.09869805    -0.82500
C261        C  0.48187931  0.90770673  0.05150340     0.98500
C262        C  0.57089821  0.88794766  0.08281032     1.04500
O263        O  0.47802240  0.87354062  0.04296760    -0.78100
C264        C  0.41873496  0.85163762  0.13657226     1.02800
Fe265      Fe  0.63605228  0.18272710  0.43447535     1.65800
Fe266      Fe  0.59875554  0.07889089  0.42779362     1.73200
Fe267      Fe  0.63996089  0.12825732  0.48680844     1.54400
O268        O  0.69706860  0.18353255  0.48690248    -0.81900
O269        O  0.56033359  0.03793394  0.45761958    -0.80200
O270        O  0.68568945  0.22331970  0.45925850    -0.84400
O271        O  0.59488273  0.18458446  0.45910985    -0.79200
O272        O  0.67324910  0.09676894  0.47580954    -0.81000
O273        O  0.54988085  0.08691838  0.41641449    -0.83700
C274        C  0.58849265  0.17666051  0.48349572     0.97000
C275        C  0.70711988  0.21923883  0.47751251     1.04500
O276        O  0.62487426  0.12964124  0.45006805    -1.12700
O277        O  0.63421315  0.11370248  0.39480716    -0.75200
O278        O  0.67647232  0.17948281  0.40916961    -0.78600
O279        O  0.60606342  0.15984895  0.49735560    -0.79300
C280        C  0.66434090  0.15146830  0.39134407     0.95900
O281        O  0.58903540  0.15414355  0.40626890    -0.77300
O282        O  0.64549049  0.06745585  0.43647017    -0.82500
C283        C  0.55924581  0.04085051  0.48259016     0.98500
C284        C  0.67214077  0.07653392  0.45476167     1.04500
O285        O  0.58666170  0.07305977  0.49473227    -0.78100
C286        C  0.55729136  0.11819106  0.40222339     1.02800
Fe287      Fe  0.84365696  0.94908041  0.43900752     1.65800
Fe288      Fe  0.73936270  0.91164967  0.43555339     1.73200
Fe289      Fe  0.79829068  0.95579667  0.38268438     1.54400
O290        O  0.85980720  0.00468448  0.38327039    -0.81900
O291        O  0.71698568  0.86449848  0.40725732    -0.80200
O292        O  0.88117281  0.00909930  0.42448985    -0.84400
O293        O  0.85988742  0.92196858  0.40904380    -0.79200
O294        O  0.77831034  0.99817278  0.39535240    -0.81000
O295        O  0.74844583  0.87293149  0.46066203    -0.83700
C296        C  0.84578968  0.90699138  0.38606391     0.97000
C297        C  0.88733609  0.02258288  0.40106768     1.04500
O298        O  0.79436250  0.93832936  0.41936834    -1.12700
O299        O  0.76117448  0.95777609  0.46465052    -0.75200
O300        O  0.82866073  0.97620005  0.46967678    -0.78600
O301        O  0.81994183  0.91420985  0.37307755    -0.79300
C302        C  0.79662444  0.97837695  0.47615807     0.95900
O303        O  0.81491178  0.89096970  0.45690593    -0.77300
O304        O  0.72181928  0.94670173  0.41261010    -0.82500
C305        C  0.71677872  0.87082630  0.38264295     0.98500
C306        C  0.74529437  0.98581569  0.40893452     1.04500
O307        O  0.73790592  0.90796991  0.37338136    -0.78100
C308        C  0.77890814  0.86775781  0.46609877     1.02800
Fe309      Fe  0.15517613  0.57791136  0.10781502     1.65800
Fe310      Fe  0.06109635  0.56918013  0.10476595     1.73200
Fe311      Fe  0.12624999  0.61191345  0.05406026     1.54400
O312        O  0.18919565  0.65276169  0.06015692    -0.81900
O313        O  0.03325314  0.52595709  0.07488216    -0.80200
O314        O  0.20456923  0.63712366  0.09953189    -0.84400
O315        O  0.16733330  0.55333226  0.07583576    -0.79200
O316        O  0.11391936  0.65897083  0.06951499    -0.81000
O317        O  0.05959550  0.52488657  0.13013438    -0.83700
C318        C  0.15924670  0.54910335  0.05134466     0.97000
C319        C  0.21523466  0.65811161  0.07828807     1.04500
O320        O  0.11494939  0.58621047  0.08886381    -1.12700
O321        O  0.09058379  0.61289090  0.13532820    -0.75200
O322        O  0.14449979  0.60205724  0.14136010    -0.78600
O323        O  0.14133661  0.56685910  0.03926650    -0.79300
C324        C  0.12175808  0.61695061  0.14899951     0.95900
O325        O  0.11164557  0.51696902  0.11727927    -0.77300
O326        O  0.05291433  0.61009607  0.08173689    -0.82500
C327        C  0.03551249  0.53643906  0.05070007     0.98500
C328        C  0.07952993  0.64855153  0.08083586     1.04500
O329        O  0.06451904  0.57178815  0.04209561    -0.78100
C330        C  0.08118554  0.50724385  0.13214365     1.02800
Fe331      Fe  0.99168021  0.85692441  0.09986240     1.65800
Fe332      Fe  0.93696063  0.75073805  0.09344419     1.73200
Fe333      Fe  0.97825201  0.79517641  0.15176208     1.54400
O334        O  0.02701900  0.85552722  0.15914087    -0.81900
O335        O  0.89141589  0.72011362  0.12173669    -0.80200
O336        O  0.04823321  0.88410478  0.12032611    -0.84400
O337        O  0.96166647  0.87035772  0.12955286    -0.79200
O338        O  0.01782187  0.77266308  0.14023656    -0.81000
O339        O  0.89833078  0.77027066  0.07691915    -0.83700
C340        C  0.93482288  0.84697840  0.14674960     0.97000
C341        C  0.05279353  0.88544498  0.14509255     1.04500
O342        O  0.96949779  0.80113399  0.11454988    -1.12700
O343        O  0.97659720  0.77523215  0.06176658    -0.75200
O344        O  0.01987555  0.84415055  0.06917291    -0.78600
O345        O  0.93572022  0.81617831  0.15847094    -0.79300
C346        C  0.00687598  0.81091909  0.05524882     0.95900
O347        O  0.94012499  0.83942356  0.07633270    -0.77300
O348        O  0.97533298  0.72898527  0.10803603    -0.82500
C349        C  0.89692536  0.71295242  0.14536461     0.98500
C350        C  0.00797423  0.74351386  0.12281143     1.04500
O351        O  0.93225263  0.73369644  0.15613418    -0.78100
C352        C  0.90685555  0.80673709  0.06924389     1.02800
Fe353      Fe  0.68910325  0.45874129  0.26831476     1.65800
Fe354      Fe  0.72549220  0.56465731  0.26622730     1.73200
Fe355      Fe  0.68983006  0.50645510  0.21140956     1.54400
O356        O  0.73462676  0.48701606  0.20567648    -0.81900
O357        O  0.69141686  0.58007322  0.24126872    -0.80200
O358        O  0.72756077  0.45036136  0.24337662    -0.84400
O359        O  0.63655591  0.41592385  0.24700623    -0.79200
O360        O  0.73507715  0.56836217  0.20434122    -0.81000
O361        O  0.67701912  0.53906220  0.29345722    -0.83700
C362        C  0.62624236  0.41351286  0.22297462     0.97000
C363        C  0.74445043  0.46487942  0.22102567     1.04500
O364        O  0.70239339  0.50939663  0.24897428    -1.12700
O365        O  0.76341506  0.55814963  0.29289325    -0.75200
O366        O  0.73800250  0.48897448  0.29457188    -0.78600
O367        O  0.64349363  0.44476455  0.20791333    -0.79300
C368        C  0.76256961  0.52610121  0.30257266     0.95900
O369        O  0.65153756  0.46880867  0.29277410    -0.77300
O370        O  0.77488330  0.59126300  0.24013132    -0.82500
C371        C  0.65343211  0.55471939  0.23643523     0.98500
C372        C  0.76994713  0.59251838  0.21538384     1.04500
O373        O  0.64407247  0.52296558  0.22153223    -0.78100
C374        C  0.65097536  0.50150631  0.30075022     1.02800
Fe375      Fe  0.47820408  0.68954656  0.25880524     1.65800
Fe376      Fe  0.57222364  0.70317493  0.25372000     1.73200
Fe377      Fe  0.51666448  0.66537487  0.31068385     1.54400
O378        O  0.48192863  0.69715825  0.32095328    -0.81900
O379        O  0.56918032  0.64753585  0.26042050    -0.80200
O380        O  0.49679163  0.73614840  0.28567437    -0.84400
O381        O  0.43157288  0.64111128  0.28266588    -0.79200
O382        O  0.57097015  0.71848149  0.32103181    -0.81000
O383        O  0.53590119  0.67572878  0.21938753    -0.83700
C384        C  0.42910898  0.61135494  0.29713375     0.97000
C385        C  0.47916801  0.72548559  0.30731491     1.04500
O386        O  0.52216367  0.68369437  0.27398066    -1.12700
O387        O  0.57937696  0.76124678  0.24447136    -0.75200
O388        O  0.51375081  0.73706297  0.23300306    -0.78600
O389        O  0.46145069  0.61041924  0.30406639    -0.79300
C390        C  0.55176478  0.76502009  0.23202994     0.95900
O391        O  0.46839783  0.64689904  0.23010086    -0.77300
O392        O  0.61224119  0.73269566  0.28620122    -0.82500
C393        C  0.56182781  0.62445112  0.28046916     0.98500
C394        C  0.60601480  0.73917387  0.31000822     1.04500
O395        O  0.54765754  0.63053451  0.30210781    -0.78100
C396        C  0.49686281  0.65388809  0.21368138     1.02800
Fe397      Fe  0.00030305  0.11338832  0.93258545     1.65800
Fe398      Fe  0.05718491  0.21984453  0.93469914     1.73200
Fe399      Fe  0.01173145  0.17000725  0.87863744     1.54400
O400        O  0.05306805  0.14753926  0.87239065    -0.81900
O401        O  0.01874207  0.24122112  0.91944869    -0.80200
O402        O  0.02615770  0.09538690  0.90274503    -0.84400
O403        O  0.94265026  0.08696239  0.91376087    -0.79200
O404        O  0.05762245  0.23117205  0.87179121    -0.81000
O405        O  0.01982573  0.19964721  0.96799680    -0.83700
C406        C  0.93750165  0.08159310  0.88915494     0.97000
C407        C  0.05272408  0.11670665  0.88493728     1.04500
O408        O  0.02274109  0.16761344  0.91587161    -1.12700
O409        O  0.09591861  0.20077692  0.95130589    -0.75200
O410        O  0.05359150  0.13168286  0.95449142    -0.78600
O411        O  0.96321500  0.10901124  0.87374398    -0.79300
C412        C  0.08748206  0.16509121  0.96020030     0.95900
O413        O  0.97579116  0.13019057  0.96338824    -0.77300
O414        O  0.10076790  0.24576134  0.90475014    -0.82500
C415        C  0.98393108  0.22391612  0.90668267     0.98500
C416        C  0.09419517  0.25105326  0.88096108     1.04500
O417        O  0.97276474  0.19306898  0.89036334    -0.78100
C418        C  0.98992366  0.16468437  0.97606960     1.02800
Fe419      Fe  0.78372246  0.31660722  0.93118527     1.65800
Fe420      Fe  0.88946918  0.37130993  0.92603716     1.73200
Fe421      Fe  0.84529522  0.32886630  0.98275557     1.54400
O422        O  0.82206689  0.37007684  0.99083363    -0.81900
O423        O  0.91707669  0.34333709  0.94654427    -0.80200
O424        O  0.76749250  0.34151863  0.96248424    -0.84400
O425        O  0.75814873  0.25741841  0.94928301    -0.79200
O426        O  0.90498490  0.37920524  0.98663263    -0.81000
O427        O  0.86915768  0.32520824  0.89729761    -0.83700
C428        C  0.75694660  0.25162783  0.97402301     0.97000
C429        C  0.79052753  0.36963435  0.97942540     1.04500
O430        O  0.83880889  0.33858889  0.94606113    -1.12700
O431        O  0.86804018  0.40301491  0.90404186    -0.75200
O432        O  0.80036362  0.37183719  0.91143082    -0.78600
O433        O  0.78638675  0.27746473  0.98869556    -0.79300
C434        C  0.83323645  0.40063420  0.90082180     0.95900
O435        O  0.79902424  0.29328304  0.89873572    -0.77300
O436        O  0.91197896  0.42012730  0.95289108    -0.82500
C437        C  0.89959555  0.30474107  0.95280618     0.98500
C438        C  0.92031782  0.41542359  0.97645831     1.04500
O439        O  0.86880674  0.28985745  0.96888722    -0.78100
C440        C  0.83284967  0.29988292  0.88816415     1.02800
Fe441      Fe  0.30765894  0.50693343  0.75560729     1.65800
Fe442      Fe  0.26307206  0.40019142  0.75548678     1.73200
Fe443      Fe  0.30343583  0.45586260  0.81204308     1.54400
O444        O  0.35447301  0.51523885  0.81502434    -0.81900
O445        O  0.21846954  0.36848616  0.78404693    -0.80200
O446        O  0.36159762  0.54594341  0.77658682    -0.84400
O447        O  0.27294294  0.51902703  0.78117605    -0.79200
O448        O  0.34298834  0.43175243  0.80217419    -0.81000
O449        O  0.22014489  0.41073427  0.73667275    -0.83700
C450        C  0.25793276  0.50722935  0.80411979     0.97000
C451        C  0.37315477  0.54664871  0.80016490     1.04500
O452        O  0.29101961  0.45447933  0.77443649    -1.12700
O453        O  0.30463075  0.42586130  0.72403481    -0.75200
O454        O  0.34266403  0.49593326  0.72969469    -0.78600
O455        O  0.26477009  0.48244835  0.81893356    -0.79300
C456        C  0.33470525  0.46226917  0.71784257     0.95900
O457        O  0.25727310  0.47971890  0.73028853    -0.77300
O458        O  0.30238915  0.38277677  0.77230155    -0.82500
C459        C  0.22229076  0.36864529  0.80887781     0.98500
C460        C  0.33629155  0.40295920  0.78519616     1.04500
O461        O  0.25469758  0.39676029  0.82042650    -0.78100
C462        C  0.22563348  0.44395366  0.72564619     1.02800
Fe463      Fe  0.53090946  0.30754954  0.76607026     1.65800
Fe464      Fe  0.42573870  0.24873274  0.76676677     1.73200
Fe465      Fe  0.47459701  0.29781058  0.71200784     1.54400
O466        O  0.53462559  0.34807513  0.70785779    -0.81900
O467        O  0.40247127  0.20545517  0.73627618    -0.80200
O468        O  0.55762333  0.36627951  0.74823798    -0.84400
O469        O  0.54843519  0.28187099  0.73579763    -0.79200
O470        O  0.45186609  0.33607193  0.72621791    -0.81000
O471        O  0.44518908  0.21070019  0.78407454    -0.83700
C472        C  0.52802583  0.25697227  0.71663021     0.97000
C473        C  0.56199940  0.37336907  0.72379930     1.04500
O474        O  0.47743453  0.28466308  0.74875661    -1.12700
O475        O  0.44455858  0.28708627  0.79964130    -0.75200
O476        O  0.51335580  0.33207080  0.79656725    -0.78600
O477        O  0.49785594  0.25751258  0.70403523    -0.79300
C478        C  0.47846068  0.31836271  0.80790954     0.95900
O479        O  0.51338860  0.25348460  0.78765677    -0.77300
O480        O  0.40240348  0.28529405  0.75121125    -0.82500
C481        C  0.39523116  0.21304653  0.71315527     0.98500
C482        C  0.42198065  0.32330461  0.74287274     1.04500
O483        O  0.41409492  0.25027521  0.70447108    -0.78100
C484        C  0.48049451  0.21910626  0.79303658     1.02800
Fe485      Fe  0.14960961  0.02712189  0.58412647     1.65800
Fe486      Fe  0.24520691  0.04450729  0.58632345     1.73200
Fe487      Fe  0.18453052  0.01338745  0.64095955     1.54400
O488        O  0.14535768  0.04215522  0.64523842    -0.81900
O489        O  0.23991358  0.98919438  0.59628482    -0.80200
O490        O  0.15906879  0.07495620  0.60744960    -0.84400
O491        O  0.10133789  0.97980974  0.60816972    -0.79200
O492        O  0.23623403  0.06974516  0.65030564    -0.81000
O493        O  0.21395801  0.01557611  0.55041135    -0.83700
C494        C  0.09955381  0.95315753  0.62524471     0.97000
C495        C  0.13992642  0.06574848  0.62855545     1.04500
O496        O  0.19313622  0.02687964  0.60378267    -1.12700
O497        O  0.25291020  0.10166066  0.57490545    -0.75200
O498        O  0.18926022  0.07398408  0.55799905    -0.78600
O499        O  0.13242123  0.95599350  0.63475485    -0.79300
C500        C  0.22714328  0.10336454  0.55923954     0.95900
O501        O  0.14604375  0.98165862  0.56001265    -0.77300
O502        O  0.28144446  0.07459018  0.62010282    -0.82500
C503        C  0.23251083  0.97014773  0.61805660     0.98500
C504        C  0.27320800  0.08580422  0.64195836     1.04500
O505        O  0.21901857  0.98069661  0.63830822    -0.78100
C506        C  0.17564466  0.98970693  0.54450173     1.02800
Fe507      Fe  0.33753749  0.78305747  0.60301612     1.65800
Fe508      Fe  0.38546285  0.89028469  0.60433515     1.73200
Fe509      Fe  0.34302481  0.83786747  0.54845997     1.54400
O510        O  0.38302555  0.81401339  0.53991395    -0.81900
O511        O  0.35309055  0.91211920  0.58271660    -0.80200
O512        O  0.36663261  0.76810797  0.57391112    -0.84400
O513        O  0.27968249  0.75026528  0.58393819    -0.79200
O514        O  0.39165830  0.89918308  0.54218325    -0.81000
O515        O  0.33967702  0.86858784  0.63322884    -0.83700
C516        C  0.27023492  0.74799684  0.55969235     0.97000
C517        C  0.38579316  0.78474322  0.55245314     1.04500
O518        O  0.35602109  0.83643964  0.58562631    -1.12700
O519        O  0.42139911  0.87520807  0.62765837    -0.75200
O520        O  0.39162435  0.80538770  0.62539458    -0.78600
O521        O  0.29293816  0.77734247  0.54415857    -0.79300
C522        C  0.41981920  0.84104389  0.63389069     0.95900
O523        O  0.30882260  0.79783328  0.63254575    -0.77300
O524        O  0.43303790  0.91429250  0.57675078    -0.82500
C525        C  0.31449564  0.88957769  0.57778533     0.98500
C526        C  0.42783884  0.91943195  0.55251452     1.04500
O527        O  0.30229321  0.85878584  0.56155104    -0.78100
C528        C  0.31301799  0.83212860  0.64178375     1.02800
Fe529      Fe  0.44800503  0.75005423  0.77205113     1.65800
Fe530      Fe  0.55204175  0.80663298  0.76213307     1.73200
Fe531      Fe  0.51194724  0.80946437  0.82022596     1.54400
O532        O  0.45109149  0.79901517  0.82563504    -0.81900
O533        O  0.58141607  0.78890049  0.79037443    -0.80200
O534        O  0.42590499  0.78797430  0.78519832    -0.84400
O535        O  0.43480589  0.71750410  0.80747684    -0.79200
O536        O  0.53171736  0.86933467  0.80382632    -0.81000
O537        O  0.52952715  0.74901464  0.74334427    -0.83700
C538        C  0.46041084  0.71497440  0.82335330     0.97000
C539        C  0.42303522  0.79469833  0.80924236     1.04500
O540        O  0.50382165  0.78845112  0.78430421    -1.12700
O541        O  0.52600209  0.82476605  0.73251532    -0.75200
O542        O  0.45736697  0.78021108  0.73638149    -0.78600
O543        O  0.49293028  0.74775024  0.83228885    -0.79300
C544        C  0.48852987  0.80943281  0.72460162     0.95900
O545        O  0.46422574  0.70852366  0.75663746    -0.77300
O546        O  0.57839392  0.86743800  0.77725311    -0.82500
C547        C  0.59137606  0.80470663  0.81333848     0.98500
C548        C  0.56016163  0.88638751  0.78627136     1.04500
O549        O  0.57349824  0.82309746  0.82335282    -0.78100
C550        C  0.49477011  0.71471673  0.74258078     1.02800
Fe551      Fe  0.68186798  0.19005191  0.77062224     1.65800
Fe552      Fe  0.71875981  0.12193097  0.76715639     1.73200
Fe553      Fe  0.67363005  0.13818057  0.71409837     1.54400
O554        O  0.62714341  0.15346473  0.71374962    -0.81900
O555        O  0.76167289  0.14084506  0.73736453    -0.80200
O556        O  0.62503171  0.17459484  0.75388253    -0.84400
O557        O  0.71340089  0.23466922  0.74226780    -0.79200
O558        O  0.63095212  0.07572328  0.72656254    -0.81000
O559        O  0.76292882  0.17197510  0.78833481    -0.83700
C560        C  0.72680151  0.23565981  0.71905055     0.97000
C561        C  0.61151679  0.16662212  0.73047331     1.04500
O562        O  0.69170230  0.15079612  0.75086186    -1.12700
O563        O  0.67823785  0.10334796  0.79858373    -0.75200
O564        O  0.65073395  0.14601492  0.79898839    -0.78600
O565        O  0.71651356  0.20238057  0.70501994    -0.79300
C566        C  0.65371949  0.11505607  0.80773169     0.95900
O567        O  0.73620883  0.21376439  0.79225162    -0.77300
O568        O  0.67829500  0.06631782  0.74820077    -0.82500
C569        C  0.75322460  0.13322932  0.71307353     0.98500
C570        C  0.64089887  0.05296467  0.74088385     1.04500
O571        O  0.71701506  0.12099957  0.70404718    -0.78100
C572        C  0.76364388  0.20395254  0.79785203     1.02800
Fe573      Fe  0.20116367  0.53951570  0.58970756     1.65800
Fe574      Fe  0.09629860  0.48133981  0.59675263     1.73200
Fe575      Fe  0.13958606  0.48301914  0.53959807     1.54400
O576        O  0.15530203  0.54526381  0.52999430    -0.81900
O577        O  0.07406500  0.42166523  0.58110497    -0.80200
O578        O  0.21067989  0.57880799  0.55768646    -0.84400
O579        O  0.22979624  0.51003275  0.57177760    -0.79200
O580        O  0.07710048  0.46394646  0.53616366    -0.81000
O581        O  0.12212697  0.46527498  0.62764851    -0.83700
C582        C  0.23179927  0.50633515  0.54718279     0.97000
C583        C  0.18511211  0.57910648  0.54054169     1.04500
O584        O  0.14617119  0.50143490  0.57594240    -1.12700
O585        O  0.11375410  0.53826287  0.61417321    -0.75200
O586        O  0.18229820  0.57481599  0.61042067    -0.78600
O587        O  0.20121908  0.49911499  0.53242878    -0.79300
C588        C  0.14862530  0.57097023  0.61877278     0.95900
O589        O  0.19164810  0.50223518  0.62231936    -0.77300
O590        O  0.06697222  0.49757938  0.56822734    -0.82500
C591        C  0.09398549  0.40428791  0.57237418     0.98500
C592        C  0.05831037  0.48159694  0.54546939     1.04500
O593        O  0.12289517  0.42272751  0.55505399    -0.78100
C594        C  0.15918659  0.47653641  0.63493507     1.02800
Fe595      Fe  0.93630664  0.08444327  0.59563362     1.65800
Fe596      Fe  0.92079600  0.16518778  0.58711437     1.73200
Fe597      Fe  0.96316745  0.15275379  0.64510052     1.54400
O598        O  0.93044554  0.08832680  0.65819884    -0.81900
O599        O  0.97237945  0.22109749  0.59549913    -0.80200
O600        O  0.89197879  0.05306117  0.62311686    -0.84400
O601        O  0.98231150  0.08615453  0.61996736    -0.79200
O602        O  0.91284912  0.15829457  0.65506402    -0.81000
O603        O  0.95561022  0.16231306  0.55541865    -0.83700
C604        C  0.01424599  0.11495130  0.63167348     0.97000
C605        C  0.90291198  0.05388410  0.64689604     1.04500
O606        O  0.94060332  0.13518755  0.60924577    -1.12700
O607        O  0.86599988  0.11285580  0.57440133    -0.75200
O608        O  0.89049456  0.07002256  0.56809168    -0.78600
O609        O  0.01594586  0.14864927  0.63898411    -0.79300
C610        C  0.86321284  0.08027434  0.56408020     0.95900
O611        O  0.97983796  0.11967612  0.56834012    -0.77300
O612        O  0.88627749  0.16971598  0.61797858    -0.82500
C613        C  0.00051407  0.23694649  0.61304514     0.98500
C614        C  0.88621917  0.16437300  0.64290071     1.04500
O615        O  0.99969104  0.21709801  0.63408813    -0.78100
C616        C  0.98082167  0.14807881  0.55316431     1.02800
Fe617      Fe  0.61561783  0.41209926  0.92639415     1.65800
Fe618      Fe  0.58221420  0.48049735  0.92411137     1.73200
Fe619      Fe  0.63962934  0.47905822  0.97710036     1.54400
O620        O  0.61259291  0.41507234  0.99088181    -0.81900
O621        O  0.63115599  0.53894939  0.92778752    -0.80200
O622        O  0.57891586  0.37493533  0.95541396    -0.84400
O623        O  0.66832515  0.41976054  0.94673237    -0.79200
O624        O  0.58897990  0.48153531  0.99200556    -0.81000
O625        O  0.60838810  0.47754808  0.88798694    -0.83700
C626        C  0.69677665  0.44803929  0.96105233     0.97000
C627        C  0.58852866  0.37901498  0.97969821     1.04500
O628        O  0.61287842  0.45792216  0.94282902    -1.12700
O629        O  0.52969585  0.42296363  0.91814146    -0.75200
O630        O  0.56354405  0.39267640  0.90288414    -0.78600
O631        O  0.69454633  0.47960372  0.96873889    -0.79300
C632        C  0.53131784  0.39604486  0.90366739     0.95900
O633        O  0.65073723  0.45152771  0.89695731    -0.77300
O634        O  0.55399438  0.48646366  0.95780957    -0.82500
C635        C  0.66294203  0.55937138  0.94234408     0.98500
C636        C  0.55899627  0.48503758  0.98262154     1.04500
O637        O  0.66931784  0.54276341  0.96303296    -0.78100
C638        C  0.63711327  0.46960876  0.88156217     1.02800
Fe639      Fe  0.86508338  0.87305894  0.92681114     1.65800
Fe640      Fe  0.76198558  0.80807562  0.93318499     1.73200
Fe641      Fe  0.80844409  0.81419152  0.87400493     1.54400
O642        O  0.83280640  0.87796452  0.86262024    -0.81900
O643        O  0.75066648  0.74878468  0.92458293    -0.80200
O644        O  0.87022425  0.91439216  0.89837014    -0.84400
O645        O  0.90232495  0.85641389  0.90638686    -0.79200
O646        O  0.75075040  0.80624150  0.86603115    -0.81000
O647        O  0.79457888  0.80816294  0.96728567    -0.83700
C648        C  0.89974247  0.83730702  0.88517734     0.97000
C649        C  0.85444529  0.91241490  0.87566943     1.04500
O650        O  0.81183237  0.83131091  0.91113409    -1.12700
O651        O  0.77039570  0.86601931  0.94310269    -0.75200
O652        O  0.83838095  0.89817428  0.95074190    -0.78600
O653        O  0.86649696  0.81903777  0.87164865    -0.79300
C654        C  0.80294464  0.89470196  0.95418012     0.95900
O655        O  0.86111809  0.83365689  0.95654001    -0.77300
O656        O  0.72146852  0.80602900  0.90371288    -0.82500
C657        C  0.76024030  0.73116030  0.90661016     0.98500
C658        C  0.72143886  0.80528259  0.87877713     1.04500
O659        O  0.78197623  0.75055580  0.88626184    -0.78100
C660        C  0.83174602  0.81728100  0.97298047     1.02800
Fe661      Fe  0.33569936  0.53004288  0.09378448     1.65800
Fe662      Fe  0.38559007  0.47353560  0.09976329     1.73200
Fe663      Fe  0.34299875  0.47888128  0.04225760     1.54400
O664        O  0.29214156  0.48877044  0.03858384    -0.81900
O665        O  0.43222003  0.49255310  0.07142677    -0.80200
O666        O  0.27538732  0.49302976  0.07946242    -0.84400
O667        O  0.35194028  0.56636790  0.06018635    -0.79200
O668        O  0.30399411  0.41642655  0.05503375    -0.81000
O669        O  0.42205409  0.53020213  0.11860791    -0.83700
C670        C  0.38104459  0.57323424  0.04451051     0.97000
C671        C  0.26719529  0.48990762  0.05496863     1.04500
O672        O  0.35456571  0.49389044  0.07918137    -1.12700
O673        O  0.34366323  0.45390011  0.13057583    -0.75200
O674        O  0.31776841  0.49744359  0.12863650    -0.78600
O675        O  0.38400638  0.54299822  0.03420938    -0.79300
C676        C  0.32213328  0.46890334  0.13991958     0.95900
O677        O  0.39421038  0.57042820  0.10915198    -0.77300
O678        O  0.34985634  0.41408045  0.08341748    -0.82500
C679        C  0.42725786  0.48256430  0.04716841     0.98500
C680        C  0.31396772  0.39699408  0.07229454     1.04500
O681        O  0.39155015  0.46691297  0.03645486    -0.78100
C682        C  0.42235609  0.56493035  0.11990316     1.02800
Fe683      Fe  0.12923713  0.07571663  0.09852526     1.65800
Fe684      Fe  0.22996874  0.14685691  0.09024654     1.73200
Fe685      Fe  0.18188031  0.14642184  0.14721150     1.54400
O686        O  0.12328844  0.14055083  0.14575209    -0.81900
O687        O  0.26933639  0.15010382  0.12087592    -0.80200
O688        O  0.08776986  0.08340964  0.12147025    -0.84400
O689        O  0.13461547  0.04063234  0.12749533    -0.79200
O690        O  0.20618385  0.20839773  0.13143800    -0.81000
O691        O  0.22469040  0.09000458  0.08103589    -0.83700
C692        C  0.14597124  0.04815547  0.15160246     0.97000
C693        C  0.08913837  0.10964914  0.13808168     1.04500
O694        O  0.18037287  0.12355889  0.11211420    -1.12700
O695        O  0.19421821  0.14452540  0.05713900    -0.75200
O696        O  0.12675600  0.11258455  0.06898000    -0.78600
O697        O  0.15882236  0.08428121  0.16283472    -0.79300
C698        C  0.15590337  0.13309564  0.05258622     0.95900
O699        O  0.15728257  0.05471970  0.07252742    -0.77300
O700        O  0.24133848  0.20642614  0.09653869    -0.82500
C701        C  0.26872581  0.15391576  0.14572070     0.98500
C702        C  0.22895586  0.22579314  0.11114490     1.04500
O703        O  0.23979899  0.15620008  0.15689896    -0.78100
C704        C  0.19350491  0.06037441  0.06954813     1.02800
Fe705      Fe  0.79844825  0.42042704  0.42987646     1.65800
Fe706      Fe  0.90149919  0.49188623  0.42510748     1.73200
Fe707      Fe  0.85187851  0.48077666  0.48194451     1.54400
O708        O  0.79037096  0.46462137  0.48584883    -0.81900
O709        O  0.93222096  0.47651202  0.45289578    -0.80200
O710        O  0.76011463  0.43891511  0.44739619    -0.84400
O711        O  0.79295613  0.38085226  0.46070653    -0.79200
O712        O  0.86538347  0.54001615  0.46766278    -0.81000
O713        O  0.89185462  0.44007951  0.40359307    -0.83700
C714        C  0.81192881  0.38419110  0.48263622     0.97000
C715        C  0.75912119  0.45046453  0.47063036     1.04500
O716        O  0.85011147  0.46358138  0.44539332    -1.12700
O717        O  0.87310211  0.50803070  0.39633886    -0.75200
O718        O  0.80494317  0.45956729  0.39898298    -0.78600
O719        O  0.83667482  0.41962741  0.49394415    -0.79300
C720        C  0.83544322  0.49220820  0.38881205     0.95900
O721        O  0.82529187  0.39335741  0.40851499    -0.77300
O722        O  0.91836014  0.54884014  0.44297257    -0.82500
C723        C  0.93714048  0.48822820  0.47668643     0.98500
C724        C  0.89502554  0.56202198  0.45182585     1.04500
O725        O  0.91449573  0.50090654  0.48706707    -0.78100
C726        C  0.86024467  0.40449557  0.39855925     1.02800
Fe727      Fe  0.00723747  0.85780835  0.42917387     1.65800
Fe728      Fe  0.05272759  0.79728266  0.43098336     1.73200
Fe729      Fe  0.00863949  0.80660453  0.37555920     1.54400
O730        O  0.96228708  0.82299622  0.37267147    -0.81900
O731        O  0.09754133  0.81718155  0.40205329    -0.80200
O732        O  0.94736171  0.82718803  0.41379695    -0.84400
O733        O  0.03020625  0.89867490  0.39734780    -0.79200
O734        O  0.96616032  0.74507003  0.38893101    -0.81000
O735        O  0.09186997  0.85095247  0.45185407    -0.83700
C736        C  0.05480020  0.90178688  0.37894935     0.97000
C737        C  0.93976996  0.82718342  0.38949116     1.04500
O738        O  0.02315041  0.82106083  0.41243786    -1.12700
O739        O  0.01118992  0.77696584  0.46204886    -0.75200
O740        O  0.98435514  0.81986793  0.46175700    -0.78600
O741        O  0.05268437  0.86962202  0.36733719    -0.79300
C742        C  0.98820101  0.79008533  0.47167360     0.95900
O743        O  0.06443294  0.89223815  0.44717437    -0.77300
O744        O  0.01584970  0.74085565  0.41137738    -0.82500
C745        C  0.08956469  0.80359348  0.37855360     0.98500
C746        C  0.97763303  0.72517379  0.40480228     1.04500
O747        O  0.05336100  0.78939485  0.36875967    -0.78100
C748        C  0.09234715  0.88508468  0.45635338     1.02800
Fe749      Fe  0.29124925  0.75370609  0.25961948     1.65800
Fe750      Fe  0.24943790  0.81578891  0.25733194     1.73200
Fe751      Fe  0.30510298  0.81668920  0.31001668     1.54400
O752        O  0.26708572  0.75599541  0.32555975    -0.81900
O753        O  0.28585935  0.87430114  0.27450673    -0.80200
O754        O  0.28335278  0.72295811  0.29497516    -0.84400
O755        O  0.35435420  0.78972611  0.26615489    -0.79200
O756        O  0.25834370  0.83065202  0.31910726    -0.81000
O757        O  0.28918775  0.83537845  0.22581709    -0.83700
C758        C  0.36828246  0.79139244  0.28925161     0.97000
C759        C  0.26555716  0.72278779  0.31621757     1.04500
O760        O  0.28158046  0.79485426  0.27550389    -1.12700
O761        O  0.21072770  0.75967793  0.23708098    -0.75200
O762        O  0.22880082  0.71534239  0.25357181    -0.78600
O763        O  0.35364767  0.80236985  0.30821502    -0.79300
C764        C  0.20638424  0.72297413  0.23829957     0.95900
O765        O  0.29944508  0.78047600  0.22234536    -0.77300
O766        O  0.20903629  0.79719911  0.28865219    -0.82500
C767        C  0.32516265  0.89267681  0.27672106     0.98500
C768        C  0.22030565  0.81313560  0.31163681     1.04500
O769        O  0.34157758  0.87576473  0.29119245    -0.78100
C770        C  0.30165966  0.81402544  0.21322588     1.02800
Fe771      Fe  0.52992306  0.20289604  0.25959785     1.65800
Fe772      Fe  0.42784963  0.13370944  0.26484602     1.73200
Fe773      Fe  0.47693624  0.14560866  0.20576164     1.54400
O774        O  0.50838903  0.21083434  0.19559787    -0.81900
O775        O  0.41654367  0.07542694  0.25422108    -0.80200
O776        O  0.53184053  0.24613821  0.23404548    -0.84400
O777        O  0.56942855  0.19321246  0.23569247    -0.79200
O778        O  0.42255982  0.14489104  0.19798430    -0.81000
O779        O  0.46145457  0.13009829  0.29757011    -0.83700
C780        C  0.56668049  0.16960541  0.21667834     0.97000
C781        C  0.52513618  0.24496925  0.20939705     1.04500
O782        O  0.47805472  0.16031995  0.24312818    -1.12700
O783        O  0.43443008  0.18988620  0.27786887    -0.75200
O784        O  0.50199789  0.22237556  0.28703767    -0.78600
O785        O  0.53211835  0.14428191  0.20593755    -0.79300
C786        C  0.46599375  0.21734072  0.29043342     0.95900
O787        O  0.52805422  0.15993017  0.28585974    -0.77300
O788        O  0.38790488  0.13363417  0.23523793    -0.82500
C789        C  0.42378748  0.05881245  0.23466771     0.98500
C790        C  0.39079809  0.13873984  0.21037523     1.04500
O791        O  0.44466681  0.07993606  0.21454629    -0.78100
C792        C  0.49883861  0.13798794  0.30167548     1.02800
C793        C  0.36026230  0.99082424  0.23237133    -0.06000
C794        C  0.40346731  0.01218645  0.23623090     0.00000
C795        C  0.42121028  0.99230820  0.25124878    -0.08600
C796        C  0.39485183  0.95359127  0.26392105    -0.06000
C797        C  0.35104442  0.93356568  0.26199153    -0.00100
C798        C  0.33338698  0.95239919  0.24507143    -0.08500
C799        C  0.28655114  0.93441809  0.24102229     0.61900
H800        H  0.34740582  0.00702727  0.22121904     0.12500
H801        H  0.40891932  0.93940159  0.27595841     0.12600
C802        C  0.46772793  0.01201574  0.25559615     0.62100
F803        F  0.27767422  0.95917967  0.22447614    -0.23100
F804        F  0.26799837  0.93212643  0.26492770    -0.20400
F805        F  0.26864608  0.89490116  0.22960534    -0.20100
F806        F  0.47743524  0.02571476  0.28142064    -0.20100
F807        F  0.49030504  0.04569373  0.23889928    -0.20500
F808        F  0.47949506  0.98223784  0.25101948    -0.23100
C809        C  0.16337124  0.83908787  0.36451491    -0.06000
C810        C  0.12288143  0.80428479  0.36211638     0.00000
C811        C  0.11520027  0.77156334  0.34404304    -0.08600
C812        C  0.14798114  0.77605446  0.32811983    -0.06000
C813        C  0.18829809  0.81131810  0.32998691    -0.00100
C814        C  0.19644247  0.84328070  0.34889290    -0.08500
C815        C  0.23937558  0.88209576  0.35248880     0.61900
H816        H  0.16878361  0.86346185  0.37863691     0.12500
H817        H  0.14226784  0.75160958  0.31397456     0.12600
C818        C  0.07299359  0.73143104  0.34180952     0.62100
F819        F  0.23872020  0.91121241  0.36950423    -0.23100
F820        F  0.25396805  0.90185773  0.32849605    -0.20400
F821        F  0.26671126  0.87037934  0.36298956    -0.20100
F822        F  0.04468940  0.74001952  0.32931602    -0.20100
F823        F  0.05869829  0.71517298  0.36663040    -0.20500
F824        F  0.07513506  0.70057933  0.32738087    -0.23100
C825        C  0.89203886  0.61082529  0.41882503    -0.06000
C826        C  0.90569354  0.60509580  0.44382367     0.00000
C827        C  0.93837910  0.63993283  0.45687216    -0.08600
C828        C  0.95944438  0.67836021  0.44344724    -0.06000
C829        C  0.94817453  0.68409007  0.41769272    -0.00100
C830        C  0.91230419  0.65028878  0.40565474    -0.08500
C831        C  0.89701896  0.65511600  0.37870739     0.61900
H832        H  0.86693345  0.58350984  0.40903698     0.12500
H833        H  0.98650401  0.70389995  0.45286817     0.12600
C834        C  0.95188743  0.63584638  0.48461142     0.62100
F835        F  0.86252971  0.61802129  0.37020833    -0.23100
F836        F  0.92824593  0.66658066  0.36042833    -0.20400
F837        F  0.88582675  0.68586277  0.37978980    -0.20100
F838        F  0.96635839  0.60760860  0.48489529    -0.20100
F839        F  0.91815571  0.62143349  0.50120503    -0.20500
F840        F  0.98331688  0.67407466  0.49435223    -0.23100
C841        C  0.31404751  0.12381524  0.15507047    -0.06000
C842        C  0.30084567  0.15198165  0.16269588     0.00000
C843        C  0.31557730  0.17397338  0.18712224    -0.08600
C844        C  0.34349041  0.16719274  0.20269730    -0.06000
C845        C  0.35709313  0.13955200  0.19475193    -0.00100
C846        C  0.34157986  0.11677949  0.17072378    -0.08500
C847        C  0.35233400  0.08366334  0.16206494     0.61900
H848        H  0.30170550  0.10639657  0.13683783     0.12500
H849        H  0.35587213  0.18435190  0.22101492     0.12600
C850        C  0.30344283  0.20569700  0.19644959     0.62100
F851        F  0.32933386  0.06150159  0.14007470    -0.23100
F852        F  0.34379628  0.05500183  0.18221117    -0.20400
F853        F  0.39398786  0.10240351  0.15568672    -0.20100
F854        F  0.26205467  0.18508872  0.20374768    -0.20100
F855        F  0.30964640  0.23398068  0.17645188    -0.20500
F856        F  0.32707855  0.22855547  0.21806776    -0.23100
C857        C  0.27582521  0.34598978  0.10808992    -0.06000
C858        C  0.28403086  0.35314483  0.08085569     0.00000
C859        C  0.26937813  0.31828350  0.06377498    -0.08600
C860        C  0.24806369  0.27739083  0.07459118    -0.06000
C861        C  0.24229185  0.26989663  0.10209151    -0.00100
C862        C  0.25510687  0.30493802  0.11908139    -0.08500
C863        C  0.24850269  0.29928230  0.14859950     0.61900
H864        H  0.28742123  0.37316083  0.12093209     0.12500
H865        H  0.23762615  0.25062880  0.06150045     0.12600
C866        C  0.27872054  0.32445066  0.03453374     0.62100
F867        F  0.26555607  0.33753897  0.16169952    -0.23100
F868        F  0.26706561  0.27747594  0.15870436    -0.20400
F869        F  0.20622890  0.27700811  0.15362039    -0.20100
F870        F  0.32129801  0.34856048  0.03087387    -0.20100
F871        F  0.25946968  0.34487088  0.02330357    -0.20500
F872        F  0.26473480  0.28646781  0.02153081    -0.23100
C873        C  0.67763348  0.61808486  0.91130063    -0.06000
C874        C  0.69229657  0.60357394  0.93267747     0.00000
C875        C  0.73402323  0.63008744  0.94161099    -0.08600
C876        C  0.75803051  0.67038611  0.92987651    -0.06000
C877        C  0.74172503  0.68515123  0.91000956    -0.00100
C878        C  0.70138476  0.65810453  0.90001020    -0.08500
C879        C  0.68232934  0.67289289  0.87874452     0.61900
H880        H  0.64623126  0.59849737  0.90377965     0.12500
H881        H  0.78929739  0.69163497  0.93686113     0.12600
C882        C  0.75301311  0.61669702  0.96358774     0.62100
F883        F  0.64477186  0.64031160  0.86922365    -0.23100
F884        F  0.70925493  0.68945880  0.85774937    -0.20400
F885        F  0.67525744  0.70364119  0.88898821    -0.20100
F886        F  0.79424152  0.64668114  0.96854991    -0.20100
F887        F  0.75176286  0.57958555  0.95672257    -0.20500
F888        F  0.73102225  0.61081517  0.98654386    -0.23100
C889        C  0.49981183  0.49800989  0.98951062    -0.06000
C890        C  0.52813518  0.48731511  0.00085765     0.00000
C891        C  0.52544619  0.47915183  0.02861304    -0.08600
C892        C  0.49248050  0.47846083  0.04293624    -0.06000
C893        C  0.46307174  0.48706201  0.03106375    -0.00100
C894        C  0.46832976  0.49927871  0.00406080    -0.08500
C895        C  0.44290694  0.51643278  0.99073924     0.61900
H896        H  0.50261224  0.50589455  0.96877718     0.12500
H897        H  0.48898242  0.47048790  0.06368068     0.12600
C898        C  0.55682719  0.47132217  0.04349133     0.62100
F899        F  0.45774244  0.53261867  0.96595817    -0.23100
F900        F  0.44536224  0.54892285  0.00579532    -0.20400
F901        F  0.40178311  0.48499335  0.98771473    -0.20100
F902        F  0.59637719  0.50599065  0.04099274    -0.20100
F903        F  0.55600102  0.43574237  0.03367988    -0.20500
F904        F  0.54841158  0.46501978  0.07017280    -0.23100
C905        C  0.95817382  0.47368979  0.51969589    -0.06000
C906        C  0.96907742  0.48668886  0.49346433     0.00000
C907        C  0.00957527  0.49861906  0.48459453    -0.08600
C908        C  0.03776797  0.49686042  0.50256823    -0.06000
C909        C  0.02681587  0.48392114  0.52876945    -0.00100
C910        C  0.98633355  0.47181320  0.53760647    -0.08500
C911        C  0.97228398  0.45542889  0.56533624     0.61900
H912        H  0.92693421  0.46444631  0.52600911     0.12500
H913        H  0.06895564  0.50577557  0.49630991     0.12600
C914        C  0.02358853  0.51429755  0.45672354     0.62100
F915        F  0.93029629  0.44134551  0.56872607    -0.23100
F916        F  0.99451187  0.48721624  0.58349292    -0.20400
F917        F  0.97878230  0.42199345  0.57036953    -0.20100
F918        F  0.01695075  0.54750797  0.45115487    -0.20100
F919        F  0.00155554  0.48198570  0.43883917    -0.20500
F920        F  0.06559105  0.52842015  0.45343248    -0.23100
C921        C  0.06872927  0.35595079  0.61067673    -0.06000
C922        C  0.08099088  0.36173984  0.58394776     0.00000
C923        C  0.07426959  0.32612986  0.56923894    -0.08600
C924        C  0.05187872  0.28583407  0.58101029    -0.06000
C925        C  0.03540103  0.27994315  0.60666852    -0.00100
C926        C  0.04550677  0.31570356  0.62217231    -0.08500
C927        C  0.02918055  0.31124165  0.64993499     0.61900
H928        H  0.07505751  0.38337534  0.62216450     0.12500
H929        H  0.04422255  0.25800178  0.56945176     0.12600
C930        C  0.08814614  0.33016161  0.54088905     0.62100
F931        F  0.04439178  0.29076485  0.66552173    -0.23100
F932        F  0.98616316  0.28808347  0.64939564    -0.20400
F933        F  0.04104743  0.34997610  0.66136115    -0.20100
F934        F  0.13098211  0.35572400  0.53980715    -0.20100
F935        F  0.06929491  0.34763828  0.52579142    -0.20500
F936        F  0.07771881  0.29141351  0.53002986    -0.23100
C937        C  0.81342231  0.12250744  0.65626382    -0.06000
C938        C  0.85143967  0.16039691  0.65874257     0.00000
C939        C  0.85738245  0.18878106  0.67940560    -0.08600
C940        C  0.82454772  0.17832175  0.69690223    -0.06000
C941        C  0.78652231  0.14034756  0.69452555    -0.00100
C942        C  0.78083350  0.11152037  0.67409651    -0.08500
C943        C  0.74186122  0.06827706  0.67212048     0.61900
H944        H  0.81020980  0.10062375  0.64086150     0.12500
H945        H  0.82821055  0.19994168  0.71257733     0.12600
C946        C  0.89782118  0.23033691  0.68248692     0.62100
F947        F  0.74609354  0.04276761  0.65382071    -0.23100
F948        F  0.70802899  0.07222710  0.66451622    -0.20400
F949        F  0.73417111  0.04831584  0.69632237    -0.20100
F950        F  0.90518137  0.25330012  0.65950714    -0.20100
F951        F  0.93051525  0.22317880  0.68748677    -0.20500
F952        F  0.89640538  0.25427974  0.70305915    -0.23100
C953        C  0.64962665  0.83832496  0.84583522    -0.06000
C954        C  0.62536710  0.80378993  0.82901721     0.00000
C955        C  0.63292232  0.76934000  0.82891555    -0.08600
C956        C  0.66351195  0.77035807  0.84627626    -0.06000
C957        C  0.68686355  0.80449844  0.86335315    -0.00100
C958        C  0.68089890  0.83969037  0.86255591    -0.08500
C959        C  0.70910725  0.87939340  0.87823591     0.61900
H960        H  0.64436887  0.86486711  0.84546673     0.12500
H961        H  0.67001998  0.74465232  0.84637963     0.12600
C962        C  0.60875595  0.73140480  0.81097413     0.62100
F963        F  0.70065614  0.91148989  0.87290766    -0.23100
F964        F  0.75020033  0.89366926  0.87182687    -0.20400
F965        F  0.70392052  0.87080013  0.90492115    -0.20100
F966        F  0.61758022  0.74365299  0.78492722    -0.20100
F967        F  0.56651484  0.71395590  0.81510704    -0.20500
F968        F  0.61899242  0.70038085  0.81564313    -0.23100
C969        C  0.60416101  0.00507700  0.77816892    -0.06000
C970        C  0.61004059  0.01002224  0.75064495     0.00000
C971        C  0.59576733  0.97358180  0.73494169    -0.08600
C972        C  0.57781930  0.93377670  0.74737844    -0.06000
C973        C  0.57337118  0.92904547  0.77502632    -0.00100
C974        C  0.58597121  0.96529580  0.79067826    -0.08500
C975        C  0.58294827  0.96218436  0.82051711     0.61900
H976        H  0.61616012  0.03292319  0.79012300     0.12500
H977        H  0.56854065  0.90596181  0.73551460     0.12600
C978        C  0.60190633  0.97714988  0.70538169     0.62100
F979        F  0.60073857  0.00138837  0.83238152    -0.23100
F980        F  0.60350822  0.94200696  0.83011261    -0.20400
F981        F  0.54151775  0.93966694  0.82765400    -0.20100
F982        F  0.64405049  0.99867063  0.69998574    -0.20100
F983        F  0.58370228  0.99892675  0.69465805    -0.20500
F984        F  0.58407965  0.93795107  0.69334354    -0.23100
C985        C  0.24093227  0.69309450  0.52427724    -0.06000
C986        C  0.23501758  0.70790146  0.54854540     0.00000
C987        C  0.19855390  0.68096301  0.56277900    -0.08600
C988        C  0.17709908  0.63745896  0.55663545    -0.06000
C989        C  0.18957156  0.62119621  0.53577437    -0.00100
C990        C  0.21804735  0.64994986  0.51741895    -0.08500
C991        C  0.22424825  0.63660873  0.49045433     0.61900
H992        H  0.26534558  0.71470636  0.51132343     0.12500
H993        H  0.15282663  0.61546826  0.56957228     0.12600
C994        C  0.18119073  0.69820228  0.58313025     0.62100
F995        F  0.26586618  0.65004752  0.48673148    -0.23100
F996        F  0.21154907  0.65514153  0.47145824    -0.20400
F997        F  0.20139910  0.59337756  0.48690285    -0.20100
F998        F  0.17619948  0.72975726  0.57169852    -0.20100
F999        F  0.20745106  0.71459304  0.60476803    -0.20500
F1000       F  0.14262624  0.66719716  0.59192588    -0.23100
C1001       C  0.48314932  0.80895970  0.67653910    -0.06000
C1002       C  0.48024309  0.82592968  0.70052763     0.00000
C1003       C  0.46552967  0.85478624  0.70120248    -0.08600
C1004       C  0.45163562  0.86373625  0.67755836    -0.06000
C1005       C  0.44930376  0.84244193  0.65412882    -0.00100
C1006       C  0.46799497  0.81699987  0.65308084    -0.08500
C1007       C  0.47361597  0.79871513  0.62787441     0.61900
H1008       H  0.49565416  0.78777199  0.67630313     0.12500
H1009       H  0.43862954  0.88439544  0.67787037     0.12600
C1010       C  0.45727140  0.87039219  0.72684520     0.62100
F1011       F  0.51508795  0.80991642  0.62590942    -0.23100
F1012       F  0.46316759  0.81374838  0.60579227    -0.20400
F1013       F  0.44937787  0.75519961  0.62838165    -0.20100
F1014       F  0.48679258  0.87691447  0.74595222    -0.20100
F1015       F  0.41840438  0.84064939  0.73586863    -0.20500
F1016       F  0.45789792  0.90817644  0.72312419    -0.23100
C1017       C  0.09925563  0.09119701  0.65483389    -0.06000
C1018       C  0.10819333  0.07941475  0.63045874     0.00000
C1019       C  0.08755847  0.08271129  0.60702709    -0.08600
C1020       C  0.06094773  0.09896919  0.60913186    -0.06000
C1021       C  0.05067019  0.10884368  0.63319258    -0.00100
C1022       C  0.07016833  0.10558432  0.65661403    -0.08500
C1023       C  0.05947755  0.11615319  0.68312658     0.61900
H1024       H  0.11489045  0.08877322  0.67237743     0.12500
H1025       H  0.04589156  0.10248526  0.59162281     0.12600
C1026       C  0.09074383  0.06770683  0.57945067     0.62100
F1027       F  0.08362152  0.11337858  0.70324628    -0.23100
F1028       F  0.01799978  0.08841932  0.68846294    -0.20400
F1029       F  0.06630660  0.15689388  0.68280324    -0.20100
F1030       F  0.08459101  0.02747640  0.58057843    -0.20100
F1031       F  0.12896707  0.09474946  0.56863079    -0.20500
F1032       F  0.06080483  0.06610690  0.56205098    -0.23100
C1033       C  0.30237986  0.92599402  0.61515985    -0.06000
C1034       C  0.28580541  0.90030130  0.59237005     0.00000
C1035       C  0.24415771  0.88748656  0.58473523    -0.08600
C1036       C  0.22327063  0.90545746  0.59785144    -0.06000
C1037       C  0.24270184  0.93593750  0.61797088    -0.00100
C1038       C  0.28146136  0.94378469  0.62810485    -0.08500
C1039       C  0.30246156  0.97434306  0.65081510     0.61900
H1040       H  0.33340340  0.93457495  0.62201264     0.12500
H1041       H  0.19329950  0.89964245  0.59039565     0.12600
C1042       C  0.22268519  0.85730393  0.56196844     0.62100
F1043       F  0.33702809  0.97309832  0.66032830    -0.23100
F1044       F  0.27470649  0.96397701  0.67127920    -0.20400
F1045       F  0.31514036  0.01503360  0.64259280    -0.20100
F1046       F  0.21996288  0.81901266  0.56748363    -0.20100
F1047       F  0.24517964  0.87393885  0.53918491    -0.20500
F1048       F  0.18263572  0.84996988  0.55753313    -0.23100
C1049       C  0.12129178  0.95339827  0.47889350    -0.06000
C1050       C  0.12404872  0.91698845  0.47474149     0.00000
C1051       C  0.15193754  0.91014052  0.49092087    -0.08600
C1052       C  0.17190399  0.93755085  0.51242776    -0.06000
C1053       C  0.16393672  0.97009764  0.51832909    -0.00100
C1054       C  0.13929793  0.97917281  0.50092033    -0.08500
C1055       C  0.13074139  0.01512561  0.50577871     0.61900
H1056       H  0.10199927  0.95997611  0.46577950     0.12500
H1057       H  0.19113729  0.93165387  0.52609355     0.12600
C1058       C  0.15939957  0.87339899  0.48676785     0.62100
F1059       F  0.10715756  0.01894509  0.48569570    -0.23100
F1060       F  0.16802053  0.05262913  0.50734879    -0.20400
F1061       F  0.10901473  0.00860106  0.52887951    -0.20100
F1062       F  0.17016792  0.87253531  0.46086276    -0.20100
F1063       F  0.12387510  0.83584485  0.49291761    -0.20500
F1064       F  0.19160550  0.87673305  0.50257983    -0.23100
C1065       C  0.52350118  0.19122376  0.73061689    -0.06000
C1066       C  0.53845697  0.22372494  0.71184427     0.00000
C1067       C  0.57179085  0.23049224  0.69559665    -0.08600
C1068       C  0.59160468  0.20670405  0.70021222    -0.06000
C1069       C  0.58047807  0.17854864  0.72160889    -0.00100
C1070       C  0.54461933  0.16910719  0.73629601    -0.08500
C1071       C  0.53009841  0.13774838  0.75881474     0.61900
H1072       H  0.49796856  0.18671754  0.74298473     0.12500
H1073       H  0.61900530  0.21356739  0.68903609     0.12600
C1074       C  0.58858571  0.26539959  0.67527583     0.62100
F1075       F  0.49114617  0.12830752  0.76759733    -0.23100
F1076       F  0.55787514  0.15437354  0.77975415    -0.20400
F1077       F  0.52762796  0.10060402  0.75059852    -0.20100
F1078       F  0.60718116  0.30412699  0.68788586    -0.20100
F1079       F  0.55628327  0.26161112  0.65935076    -0.20500
F1080       F  0.61780829  0.26381445  0.65936250    -0.23100
C1081       C  0.30032461  0.11300484  0.68670433    -0.06000
C1082       C  0.30708021  0.11765499  0.65933339     0.00000
C1083       C  0.34360850  0.15341768  0.64985713    -0.08600
C1084       C  0.37174499  0.18312842  0.66825698    -0.06000
C1085       C  0.36457362  0.17866778  0.69559944    -0.00100
C1086       C  0.32801216  0.14297313  0.70503238    -0.08500
C1087       C  0.31704179  0.13702319  0.73411284     0.61900
H1088       H  0.27251599  0.08545596  0.69375207     0.12500
H1089       H  0.39983298  0.21049067  0.66132269     0.12600
C1090       C  0.35241259  0.16127654  0.62058696     0.62100
F1091       F  0.27753708  0.10306864  0.73833718    -0.23100
F1092       F  0.31797954  0.17269507  0.74391477    -0.20400
F1093       F  0.34515307  0.12971213  0.74800144    -0.20100
F1094       F  0.31901964  0.16089263  0.60782552    -0.20100
F1095       F  0.35899800  0.13038296  0.61004475    -0.20500
F1096       F  0.38751265  0.19998088  0.61580427    -0.23100
C1097       C  0.46944514  0.31159559  0.85540282    -0.06000
C1098       C  0.47786906  0.33733516  0.83309849     0.00000
C1099       C  0.49159292  0.38081743  0.83617034    -0.08600
C1100       C  0.50021824  0.39768988  0.86176474    -0.06000
C1101       C  0.49942995  0.37333421  0.88341206    -0.00100
C1102       C  0.48136949  0.32925992  0.88068714    -0.08500
C1103       C  0.47800660  0.30179266  0.90409417     0.61900
H1104       H  0.45818574  0.27824145  0.85261680     0.12500
H1105       H  0.51401452  0.43153538  0.86421583     0.12600
C1106       C  0.50078386  0.41145287  0.81352238     0.62100
F1107       F  0.45386470  0.25929695  0.89810456    -0.23100
F1108       F  0.45978408  0.31057534  0.92488958    -0.20400
F1109       F  0.51715896  0.30958462  0.91184776    -0.20100
F1110       F  0.49262872  0.39259247  0.78898403    -0.20100
F1111       F  0.54241626  0.44245373  0.81457714    -0.20500
F1112       F  0.47670380  0.43031924  0.81607266    -0.23100
C1113       C  0.46698144  0.65654016  0.80711874    -0.06000
C1114       C  0.45342868  0.67205842  0.82773650     0.00000
C1115       C  0.42063367  0.64297781  0.84371976    -0.08600
C1116       C  0.39675738  0.60086485  0.83518678    -0.06000
C1117       C  0.40606627  0.58702991  0.81174070    -0.00100
C1118       C  0.44376964  0.61419883  0.79880937    -0.08500
C1119       C  0.45886167  0.59894105  0.77605238     0.61900
H1120       H  0.49289348  0.67888031  0.79535490     0.12500
H1121       H  0.36915760  0.57939456  0.84610347     0.12600
C1122       C  0.40986054  0.65528997  0.86958572     0.62100
F1123       F  0.49966802  0.62791357  0.76975247    -0.23100
F1124       F  0.43411568  0.59246630  0.75399185    -0.20400
F1125       F  0.45719931  0.56151835  0.78287574    -0.20100
F1126       F  0.37034835  0.65014699  0.86796526    -0.20100
F1127       F  0.43808074  0.69661814  0.87645105    -0.20500
F1128       F  0.41044030  0.62938328  0.88933381    -0.23100
C1129       C  0.37782112  0.39669558  0.75012208    -0.06000
C1130       C  0.36854423  0.39263623  0.77727287     0.00000
C1131       C  0.38081814  0.36916543  0.79326771    -0.08600
C1132       C  0.40101795  0.34966221  0.78134748    -0.06000
C1133       C  0.40839751  0.35201201  0.75392682    -0.00100
C1134       C  0.39702492  0.37636526  0.73805214    -0.08500
C1135       C  0.40142555  0.37745271  0.70830088     0.61900
H1136       H  0.36651563  0.41305271  0.73788382     0.12500
H1137       H  0.40884693  0.33007637  0.79325451     0.12600
C1138       C  0.36877515  0.36117567  0.82204265     0.62100
F1139       F  0.38436657  0.39928699  0.69615110    -0.23100
F1140       F  0.38101028  0.33674244  0.69837754    -0.20400
F1141       F  0.44313899  0.39690767  0.70188474    -0.20100
F1142       F  0.32586767  0.33676938  0.82381258    -0.20100
F1143       F  0.38210477  0.39906542  0.83495828    -0.20500
F1144       F  0.38639749  0.34021133  0.83474070    -0.23100
C1145       C  0.16775701  0.42467174  0.66114850    -0.06000
C1146       C  0.16536977  0.46156121  0.66030803     0.00000
C1147       C  0.17345458  0.48650842  0.68313863    -0.08600
C1148       C  0.18803083  0.47594787  0.70576319    -0.06000
C1149       C  0.19572191  0.44221349  0.70572284    -0.00100
C1150       C  0.18290652  0.41425100  0.68381430    -0.08500
C1151       C  0.18728290  0.37518418  0.68371664     0.61900
H1152       H  0.16016436  0.40568179  0.64342148     0.12500
H1153       H  0.19710454  0.49623004  0.72297840     0.12600
C1154       C  0.16956127  0.52582198  0.68292102     0.62100
F1155       F  0.17311887  0.35297238  0.66024975    -0.23100
F1156       F  0.16409338  0.34862737  0.70393405    -0.20400
F1157       F  0.22863589  0.38640528  0.68711172    -0.20100
F1158       F  0.12950305  0.51542629  0.67545978    -0.20100
F1159       F  0.19746594  0.55445842  0.66525312    -0.20500
F1160       F  0.17806628  0.54511000  0.70742378    -0.23100
C1161       C  0.78983072  0.43129263  0.96094826    -0.06000
C1162       C  0.78078089  0.40424550  0.98281536     0.00000
C1163       C  0.75140688  0.40220457  0.00122036    -0.08600
C1164       C  0.72622553  0.41976481  0.99437066    -0.06000
C1165       C  0.73126371  0.44131992  0.97047776    -0.00100
C1166       C  0.76594740  0.45058296  0.95477553    -0.08500
C1167       C  0.77699323  0.48027161  0.93155511     0.61900
H1168       H  0.81357821  0.43441859  0.94743390     0.12500
H1169       H  0.70137051  0.41522837  0.00741005     0.12600
C1170       C  0.74593730  0.38266467  0.02823772     0.62100
F1171       F  0.81358908  0.48775846  0.91984308    -0.23100
F1172       F  0.78238990  0.51850743  0.94012548    -0.20400
F1173       F  0.74527658  0.46346260  0.91289770    -0.20100
F1174       F  0.75231161  0.41254396  0.04710674    -0.20100
F1175       F  0.77406434  0.36906372  0.03323299    -0.20500
F1176       F  0.70578645  0.34904940  0.03059107    -0.23100
C1177       C  0.81021022  0.27362006  0.81666652    -0.06000
C1178       C  0.79598102  0.23031385  0.81735769     0.00000
C1179       C  0.80508685  0.21266871  0.83971792    -0.08600
C1180       C  0.82070084  0.23753769  0.86263002    -0.06000
C1181       C  0.82908501  0.27924381  0.86284610    -0.00100
C1182       C  0.82717175  0.29867973  0.83913380    -0.08500
C1183       C  0.83938758  0.34477186  0.83815101     0.61900
H1184       H  0.80424996  0.28688841  0.79913672     0.12500
H1185       H  0.82406003  0.22396915  0.88088390     0.12600
C1186       C  0.79686833  0.16769181  0.83984996     0.62100
F1187       F  0.84001673  0.35847855  0.81257032    -0.23100
F1188       F  0.87882583  0.36903964  0.84896584    -0.20400
F1189       F  0.81105543  0.35061259  0.85221536    -0.20100
F1190       F  0.81880270  0.16268082  0.81969492    -0.20100
F1191       F  0.75485819  0.13952078  0.83632293    -0.20500
F1192       F  0.80949142  0.15791389  0.86335566    -0.23100
C1193       C  0.11674153  0.28697721  0.83747171    -0.06000
C1194       C  0.12848100  0.28074928  0.86299602     0.00000
C1195       C  0.17169137  0.30151011  0.86965706    -0.08600
C1196       C  0.20070929  0.32870762  0.85098679    -0.06000
C1197       C  0.18876895  0.33578148  0.82580227    -0.00100
C1198       C  0.14584344  0.31359713  0.81867805    -0.08500
C1199       C  0.13021497  0.31809223  0.79164376     0.61900
H1200       H  0.08399281  0.27067944  0.83213005     0.12500
H1201       H  0.23357639  0.34503547  0.85608927     0.12600
C1202       C  0.18781619  0.29525106  0.89606756     0.62100
F1203       F  0.08715882  0.29490292  0.78946138    -0.23100
F1204       F  0.14621873  0.30369555  0.77242899    -0.20400
F1205       F  0.14237227  0.35991815  0.78700980    -0.20100
F1206       F  0.17474989  0.25295432  0.89964492    -0.20100
F1207       F  0.17325393  0.30945768  0.91626676    -0.20500
F1208       F  0.23095788  0.31729111  0.89766413    -0.23100
C1209       C  0.91624085  0.02375590  0.85664754    -0.06000
C1210       C  0.90496300  0.04032564  0.87803460     0.00000
C1211       C  0.86595634  0.01458324  0.89003561    -0.08600
C1212       C  0.84385711  0.97135207  0.88373194    -0.06000
C1213       C  0.86031496  0.95334218  0.86663161    -0.00100
C1214       C  0.89460762  0.98019985  0.85094811    -0.08500
C1215       C  0.90931596  0.96225614  0.82951562     0.61900
H1216       H  0.94435403  0.04437042  0.84603696     0.12500
H1217       H  0.81696102  0.95041297  0.89534481     0.12600
C1218       C  0.84817695  0.03198787  0.90990530     0.62100
F1219       F  0.94299994  0.99353512  0.81611056    -0.23100
F1220       F  0.87716534  0.94037738  0.81155037    -0.20400
F1221       F  0.92105534  0.93508092  0.84035118    -0.20100
F1222       F  0.85096822  0.06869775  0.90026147    -0.20100
F1223       F  0.86980292  0.04044052  0.93355218    -0.20500
F1224       F  0.80658468  0.00360534  0.91474359    -0.23100
C1225       C  0.95492940  0.30419478  0.92595050    -0.06000
C1226       C  0.91770938  0.28015518  0.94023653     0.00000
C1227       C  0.89860957  0.23545710  0.93911368    -0.08600
C1228       C  0.91914248  0.21716001  0.92561119    -0.06000
C1229       C  0.95683210  0.24196880  0.91218023    -0.00100
C1230       C  0.97370892  0.28608147  0.91131303    -0.08500
C1231       C  0.01218392  0.31583552  0.89564293     0.61900
H1232       H  0.97003075  0.33831297  0.92571153     0.12500
H1233       H  0.90687608  0.18341181  0.92644586     0.12600
C1234       C  0.85700932  0.20726066  0.95189213     0.62100
F1235       F  0.00332393  0.34155804  0.88006619    -0.23100
F1236       F  0.02532073  0.29499721  0.87910459    -0.20400
F1237       F  0.04442793  0.34086331  0.91287504    -0.20100
F1238       F  0.82701083  0.21456120  0.94061739    -0.20100
F1239       F  0.86005162  0.21574101  0.97859826    -0.20500
F1240       F  0.84418461  0.16493983  0.94865822    -0.23100
C1241       C  0.10747646  0.12004410  0.98503473    -0.06000
C1242       C  0.11536064  0.16120398  0.97993150     0.00000
C1243       C  0.14289955  0.19466469  0.99707622    -0.08600
C1244       C  0.15653239  0.18426784  0.02051342    -0.06000
C1245       C  0.14445830  0.14243311  0.02668380    -0.00100
C1246       C  0.12138008  0.10996636  0.00821569    -0.08500
C1247       C  0.11172173  0.06492276  0.01287671     0.61900
H1248       H  0.08828160  0.09505533  0.97124908     0.12500
H1249       H  0.17561685  0.20855501  0.03469822     0.12600
C1250       C  0.15848217  0.24094364  0.99097782     0.62100
F1251       F  0.08983666  0.03854205  0.99196555    -0.23100
F1252       F  0.08794861  0.04861021  0.03521996    -0.20400
F1253       F  0.14864721  0.06462405  0.01598765    -0.20100
F1254       F  0.12620430  0.24947269  0.99015372    -0.20100
F1255       F  0.17836001  0.25100212  0.96694514    -0.20500
F1256       F  0.18657460  0.26728842  0.00987177    -0.23100
C1257       C  0.42419818  0.78883721  0.31706599    -0.06000
C1258       C  0.39683057  0.77415969  0.29489696     0.00000
C1259       C  0.39386800  0.73968115  0.28018066    -0.08600
C1260       C  0.41669989  0.72083609  0.28882194    -0.06000
C1261       C  0.44597642  0.73686960  0.30961981    -0.00100
C1262       C  0.45036107  0.77196987  0.32382179    -0.08500
C1263       C  0.48336436  0.79189649  0.34526599     0.61900
H1264       H  0.42623993  0.81480270  0.32839513     0.12500
H1265       H  0.41492434  0.69534698  0.27732214     0.12600
C1266       C  0.36781703  0.72253474  0.25491493     0.62100
F1267       F  0.48220538  0.82501192  0.35746847    -0.23100
F1268       F  0.52246899  0.80720268  0.33454422    -0.20400
F1269       F  0.47709544  0.76194080  0.36412352    -0.20100
F1270       F  0.38197909  0.75386226  0.23598432    -0.20100
F1271       F  0.32632399  0.70803375  0.25988441    -0.20500
F1272       F  0.37027657  0.68909503  0.24426588    -0.23100
C1273       C  0.49989079  0.61418012  0.17529953    -0.06000
C1274       C  0.48423505  0.63820094  0.18656245     0.00000
C1275       C  0.45790025  0.64814685  0.17132530    -0.08600
C1276       C  0.44268783  0.62778273  0.14706973    -0.06000
C1277       C  0.45322086  0.59842835  0.13764733    -0.00100
C1278       C  0.48616116  0.59564127  0.15029523    -0.08500
C1279       C  0.50730786  0.57356183  0.13821426     0.61900
H1280       H  0.52253461  0.60940294  0.18624439     0.12500
H1281       H  0.41967635  0.63220685  0.13640476     0.12600
C1282       C  0.44613274  0.68039708  0.18017584     0.62100
F1283       F  0.54987087  0.59684106  0.14298052    -0.23100
F1284       F  0.50142273  0.56958958  0.11114332    -0.20400
F1285       F  0.49194605  0.53408069  0.14938144    -0.20100
F1286       F  0.48193720  0.71841453  0.18502682    -0.20100
F1287       F  0.42233253  0.66683884  0.20266768    -0.20500
F1288       F  0.42328033  0.68743911  0.16106247    -0.23100
C1289       C  0.58294851  0.30660289  0.19034114    -0.06000
C1290       C  0.54112770  0.28701668  0.19762269     0.00000
C1291       C  0.52518272  0.31239761  0.20698929    -0.08600
C1292       C  0.55332338  0.35447866  0.21466315    -0.06000
C1293       C  0.59640119  0.37189743  0.21133519    -0.00100
C1294       C  0.61112706  0.34863344  0.19727885    -0.08500
C1295       C  0.65706995  0.36676101  0.19175383     0.61900
H1296       H  0.59489444  0.28727323  0.18289361     0.12500
H1297       H  0.54206914  0.37342334  0.22390303     0.12600
C1298       C  0.47845732  0.29394710  0.20902713     0.62100
F1299       F  0.66461152  0.33931851  0.17731957    -0.23100
F1300       F  0.67877732  0.37486954  0.21536260    -0.20400
F1301       F  0.67166643  0.40363303  0.17747586    -0.20100
F1302       F  0.46127758  0.25889129  0.22518312    -0.20100
F1303       F  0.46060282  0.28179345  0.18417835    -0.20500
F1304       F  0.46863290  0.32300817  0.21892277    -0.23100
C1305       C  0.63620195  0.58624208  0.27419772    -0.06000
C1306       C  0.62242743  0.56285284  0.25037662     0.00000
C1307       C  0.58163408  0.55044256  0.24110873    -0.08600
C1308       C  0.55853443  0.56598499  0.25436220    -0.06000
C1309       C  0.57415884  0.59193219  0.27705814    -0.00100
C1310       C  0.61192086  0.59885680  0.28833263    -0.08500
C1311       C  0.62747519  0.62158002  0.31456481     0.61900
H1312       H  0.66741304  0.59669525  0.28140584     0.12500
H1313       H  0.52949614  0.56105377  0.24577837     0.12600
C1314       C  0.56379208  0.52371173  0.21646674     0.62100
F1315       F  0.66353779  0.62245734  0.32314243    -0.23100
F1316       F  0.59723356  0.60073827  0.33337835    -0.20400
F1317       F  0.63575020  0.66272006  0.31246407    -0.20100
F1318       F  0.56024047  0.48466489  0.22046140    -0.20100
F1319       F  0.58969873  0.54343060  0.19536972    -0.20500
F1320       F  0.52460545  0.51730176  0.21004154    -0.23100
C1321       C  0.79167270  0.51869747  0.37195775    -0.06000
C1322       C  0.82559477  0.51291807  0.36769458     0.00000
C1323       C  0.84526595  0.52217444  0.34288719    -0.08600
C1324       C  0.82641070  0.53196837  0.32198922    -0.06000
C1325       C  0.78865220  0.53111063  0.32554932    -0.00100
C1326       C  0.77246897  0.52737720  0.35107607    -0.08500
C1327       C  0.73329252  0.52928082  0.35591296     0.61900
H1328       H  0.77839404  0.51309111  0.39148927     0.12500
H1329       H  0.83947738  0.53773014  0.30249587     0.12600
C1330       C  0.88407191  0.51919754  0.33816594     0.62100
F1331       F  0.72516725  0.52856498  0.38253602    -0.23100
F1332       F  0.69986396  0.49483175  0.34413842    -0.20400
F1333       F  0.73762354  0.56615347  0.34541033    -0.20100
F1334       F  0.87655367  0.47918413  0.34442501    -0.20100
F1335       F  0.91658169  0.54864150  0.35366275    -0.20500
F1336       F  0.89633867  0.52705725  0.31213021    -0.23100
C1337       C  0.87451123  0.66181705  0.18205874    -0.06000
C1338       C  0.86277056  0.67997243  0.16153569     0.00000
C1339       C  0.82029716  0.66873115  0.15881590    -0.08600
C1340       C  0.79180572  0.64147450  0.17761080    -0.06000
C1341       C  0.80372514  0.62387697  0.19834633    -0.00100
C1342       C  0.84569648  0.63326353  0.20017756    -0.08500
C1343       C  0.85962668  0.61104508  0.21964217     0.61900
H1344       H  0.90681082  0.66974596  0.18356112     0.12500
H1345       H  0.75941546  0.63324301  0.17609537     0.12600
C1346       C  0.80475464  0.68525614  0.13646491     0.62100
F1347       F  0.90133581  0.62333017  0.21694003    -0.23100
F1348       F  0.83654499  0.56811567  0.21511457    -0.20400
F1349       F  0.85408129  0.61987772  0.24523679    -0.20100
F1350       F  0.81095891  0.67121993  0.11260709    -0.20100
F1351       F  0.82591046  0.72888901  0.13687097    -0.20500
F1352       F  0.76256078  0.67131097  0.13834590    -0.23100
C1353       C  0.10644920  0.98976055  0.18164307    -0.06000
C1354       C  0.14168255  0.01096352  0.16597161     0.00000
C1355       C  0.15580856  0.98650927  0.15284648    -0.08600
C1356       C  0.12697041  0.94382344  0.14730775    -0.06000
C1357       C  0.08679208  0.92445869  0.15785885    -0.00100
C1358       C  0.07853130  0.94624307  0.17797582    -0.08500
C1359       C  0.03852930  0.92521118  0.19332766     0.61900
H1360       H  0.09765330  0.00833038  0.19360501     0.12500
H1361       H  0.13491200  0.92613928  0.13383928     0.12600
C1362       C  0.20050963  0.00680414  0.14366711     0.62100
F1363       F  0.03730390  0.95174548  0.21218990    -0.23100
F1364       F  0.03455240  0.88999232  0.20615434    -0.20400
F1365       F  0.00558137  0.91360653  0.17603825    -0.20100
F1366       F  0.22703475  0.02375971  0.16522001    -0.20100
F1367       F  0.20913583  0.03875268  0.12592678    -0.20500
F1368       F  0.20854374  0.97773295  0.13174719    -0.23100
C1369       C  0.84808943  0.77357526  0.03700959    -0.06000
C1370       C  0.87958654  0.81097280  0.04896592     0.00000
C1371       C  0.88887767  0.85067182  0.03782149    -0.08600
C1372       C  0.86996318  0.85068022  0.01365782    -0.06000
C1373       C  0.84279847  0.81324359  0.00037808    -0.00100
C1374       C  0.83020241  0.77412983  0.01249913    -0.08500
C1375       C  0.80173675  0.73343531  0.99809495     0.61900
H1376       H  0.84026017  0.74346978  0.04566678     0.12500
H1377       H  0.87840021  0.88028550  0.00394488     0.12600
C1378       C  0.92111513  0.89327566  0.04938987     0.62100
F1379       F  0.79324292  0.69832422  0.01298914    -0.23100
F1380       F  0.82115029  0.73253289  0.97528459    -0.20400
F1381       F  0.76432302  0.73133785  0.99177575    -0.20100
F1382       F  0.96090848  0.90088336  0.04438672    -0.20100
F1383       F  0.91598141  0.89420778  0.07626311    -0.20500
F1384       F  0.91753050  0.92604772  0.03844053    -0.23100
C1385       C  0.16191618  0.48382774  0.05073581    -0.06000
C1386       C  0.17370282  0.52266200  0.03823292     0.00000
C1387       C  0.21138940  0.54225105  0.02412783    -0.08600
C1388       C  0.24003725  0.52787622  0.02798195    -0.06000
C1389       C  0.23142059  0.49418303  0.04511217    -0.00100
C1390       C  0.19042190  0.46931366  0.05456786    -0.08500
C1391       C  0.17716337  0.42809408  0.06882262     0.61900
H1392       H  0.13228510  0.46804730  0.06076365     0.12500
H1393       H  0.27072239  0.54522447  0.01948203     0.12600
C1394       C  0.22204958  0.57964652  0.00644401     0.62100
F1395       F  0.13460485  0.40598891  0.07306089    -0.23100
F1396       F  0.19739952  0.43564680  0.09297457    -0.20400
F1397       F  0.18700898  0.40301171  0.05371581    -0.20100
F1398       F  0.22728487  0.61360911  0.02123182    -0.20100
F1399       F  0.18996155  0.56872135  0.98834608    -0.20500
F1400       F  0.25831617  0.59185983  0.99264361    -0.23100
C1401       C  0.06963330  0.74438481  0.10286339    -0.06000
C1402       C  0.03377361  0.72367110  0.11856908     0.00000
C1403       C  0.01666386  0.68036829  0.12385935    -0.08600
C1404       C  0.03357404  0.65834017  0.11146350    -0.06000
C1405       C  0.06780476  0.67782143  0.09414999    -0.00100
C1406       C  0.08766584  0.72225793  0.09098324    -0.08500
C1407       C  0.12692762  0.74600886  0.07497772     0.61900
H1408       H  0.08207420  0.77761045  0.09882923     0.12500
H1409       H  0.01919070  0.62485080  0.11522500     0.12600
C1410       C  0.97967582  0.65716244  0.14213191     0.62100
F1411       F  0.14123536  0.78889730  0.07467938    -0.23100
F1412       F  0.11918324  0.73148393  0.04924013    -0.20400
F1413       F  0.15804348  0.74011875  0.08589862    -0.20100
F1414       F  0.94407776  0.65355967  0.13050369    -0.20100
F1415       F  0.98772520  0.67920592  0.16558425    -0.20500
F1416       F  0.97190215  0.61691130  0.14800021    -0.23100
C1417       C  0.01718662  0.50784304  0.00547129    -0.06000
C1418       C  0.00394735  0.50739078  0.03144633     0.00000
C1419       C  0.96151580  0.48027223  0.03789709    -0.08600
C1420       C  0.93461972  0.45260385  0.01845243    -0.06000
C1421       C  0.94854181  0.45146909  0.99307088    -0.00100
C1422       C  0.99007950  0.48014344  0.98603529    -0.08500
C1423       C  0.00611457  0.48013261  0.95863654     0.61900
H1424       H  0.04951441  0.52920797  0.00069483     0.12500
H1425       H  0.90249450  0.43025581  0.02321478     0.12600
C1426       C  0.94427632  0.48010804  0.06495289     0.62100
F1427       F  0.04803635  0.50968846  0.95632825    -0.23100
F1428       F  0.98428915  0.48965323  0.94016853    -0.20400
F1429       F  0.00094516  0.44082558  0.95309621    -0.20100
F1430       F  0.95583071  0.52086734  0.07239439    -0.20100
F1431       F  0.95929976  0.46272188  0.08325012    -0.20500
F1432       F  0.90113643  0.45655908  0.06514126    -0.23100
C1433       C  0.15915113  0.62935598  0.19133596    -0.06000
C1434       C  0.13425185  0.63925142  0.17503392     0.00000
C1435       C  0.12748598  0.67244401  0.18280555    -0.08600
C1436       C  0.14831814  0.69617937  0.20548399    -0.06000
C1437       C  0.17740470  0.68947999  0.21966279    -0.00100
C1438       C  0.18263423  0.65479056  0.21255982    -0.08500
C1439       C  0.21499638  0.64582726  0.22540265     0.61900
H1440       H  0.16264844  0.60272668  0.18605775     0.12500
H1441       H  0.14422267  0.72229519  0.21120924     0.12600
C1442       C  0.10066484  0.68456532  0.16660693     0.62100
F1443       F  0.21527172  0.61155146  0.21421435    -0.23100
F1444       F  0.20665621  0.63719877  0.25192816    -0.20400
F1445       F  0.25458536  0.68014175  0.22223592    -0.20100
F1446       F  0.06058651  0.65053518  0.16503241    -0.20100
F1447       F  0.11734871  0.69638768  0.14175527    -0.20500
F1448       F  0.09863021  0.71807775  0.17748703    -0.23100
C1449       C  0.84338285  0.83864581  0.38647833    -0.06000
C1450       C  0.86059654  0.87921500  0.37542284     0.00000
C1451       C  0.89976950  0.89662900  0.36306041    -0.08600
C1452       C  0.92351714  0.87662182  0.36624051    -0.06000
C1453       C  0.90869939  0.83915205  0.38069468    -0.00100
C1454       C  0.86684861  0.81802781  0.38907065    -0.08500
C1455       C  0.84772096  0.77446149  0.40107511     0.61900
H1456       H  0.81292198  0.82497174  0.39535200     0.12500
H1457       H  0.95509410  0.89200604  0.35885494     0.12600
C1458       C  0.91888255  0.93754194  0.34786445     0.62100
F1459       F  0.86637605  0.77670008  0.42519056    -0.23100
F1460       F  0.85376814  0.74809536  0.38457842    -0.20400
F1461       F  0.80526503  0.75694937  0.40464888    -0.20100
F1462       F  0.95303947  0.96796735  0.36175035    -0.20100
F1463       F  0.89101458  0.95161050  0.34344479    -0.20500
F1464       F  0.93171632  0.93159400  0.32356528    -0.23100
C1465       C  0.64931021  0.76145602  0.35063527    -0.06000
C1466       C  0.63994134  0.77275669  0.32610235     0.00000
C1467       C  0.65711668  0.81588716  0.31981326    -0.08600
C1468       C  0.68208506  0.84638942  0.33877809    -0.06000
C1469       C  0.69041325  0.83542916  0.36391663    -0.00100
C1470       C  0.67470863  0.79191025  0.36962352    -0.08500
C1471       C  0.68484962  0.77715706  0.39524030     0.61900
H1472       H  0.63540814  0.72816006  0.35507061     0.12500
H1473       H  0.69445091  0.87938783  0.33416747     0.12600
C1474       C  0.64737417  0.82959526  0.29366171     0.62100
F1475       F  0.67046095  0.73420066  0.39508596    -0.23100
F1476       F  0.66647226  0.78551891  0.41613526    -0.20400
F1477       F  0.72759344  0.79772625  0.39895876    -0.20100
F1478       F  0.60476990  0.81289036  0.29093483    -0.20100
F1479       F  0.66162484  0.81551941  0.27322593    -0.20500
F1480       F  0.66620053  0.87304992  0.29174493    -0.23100
C1481       C  0.79520339  0.98559194  0.52377893    -0.06000
C1482       C  0.80104178  0.00476446  0.49906588     0.00000
C1483       C  0.81697596  0.04897076  0.49749727    -0.08600
C1484       C  0.83005755  0.07286255  0.52091190    -0.06000
C1485       C  0.82970917  0.05414777  0.54514070    -0.00100
C1486       C  0.80907921  0.00961043  0.54695596    -0.08500
C1487       C  0.80420876  0.98654971  0.57269746     0.61900
H1488       H  0.78234094  0.95170388  0.52487776     0.12500
H1489       H  0.84560889  0.10700097  0.51970710     0.12600
C1490       C  0.82332142  0.07303280  0.47194633     0.62100
F1491       F  0.76346719  0.95397658  0.57493367    -0.23100
F1492       F  0.81322621  0.01276834  0.59427664    -0.20400
F1493       F  0.83046929  0.96989648  0.57303872    -0.20100
F1494       F  0.81416955  0.04803770  0.44980677    -0.20100
F1495       F  0.86440471  0.10500059  0.47041946    -0.20500
F1496       F  0.79813681  0.09090814  0.47175794    -0.23100
C1497       C  0.53306154  0.00871918  0.52686037    -0.06000
C1498       C  0.52564198  0.00669203  0.49930585     0.00000
C1499       C  0.48642467  0.97437882  0.48957516    -0.08600
C1500       C  0.45639254  0.94661987  0.50770888    -0.06000
C1501       C  0.46336906  0.94962710  0.53529827    -0.00100
C1502       C  0.50294803  0.98132018  0.54501136    -0.08500
C1503       C  0.51375045  0.98727927  0.57432493     0.61900
H1504       H  0.56314222  0.03267026  0.53438721     0.12500
H1505       H  0.42658676  0.92205270  0.50021605     0.12600
C1506       C  0.47551425  0.96914588  0.46034080     0.62100
F1507       F  0.55304976  0.02147345  0.57928443    -0.23100
F1508       F  0.51319228  0.95178914  0.58431388    -0.20400
F1509       F  0.48536199  0.99426769  0.58757248    -0.20100
F1510       F  0.50234507  0.95991436  0.44708210    -0.20100
F1511       F  0.47862582  0.00586307  0.45044098    -0.20500
F1512       F  0.43523901  0.93666923  0.45543299    -0.23100
C1513       C  0.77206334  0.32378705  0.51223735    -0.06000
C1514       C  0.80404284  0.34361013  0.49397818     0.00000
C1515       C  0.81335784  0.31780719  0.47827145    -0.08600
C1516       C  0.78158907  0.27585557  0.47329777    -0.06000
C1517       C  0.74475293  0.25771946  0.48796128    -0.00100
C1518       C  0.74397317  0.27997603  0.51070995    -0.08500
C1519       C  0.71886515  0.25857733  0.53497182     0.51100
H1520       H  0.76767068  0.34276230  0.52676075     0.12500
H1521       H  0.78528548  0.25734048  0.45810672     0.12600
C1522       C  0.85729049  0.33484889  0.46833750     0.62100
F1523       F  0.70165413  0.28132260  0.54511639    -0.23100
F1524       F  0.74543518  0.25746617  0.55393799    -0.20400
F1525       F  0.68764377  0.21769656  0.53008005    -0.20100
F1526       F  0.86926523  0.37008725  0.45280306    -0.20100
F1527       F  0.86087064  0.30484616  0.45391035    -0.20500
F1528       F  0.88429552  0.34618678  0.48977513    -0.23100
C1529       C  0.72707733  0.07789003  0.42691333    -0.06000
C1530       C  0.70189496  0.06144796  0.44943513     0.00000
C1531       C  0.69461671  0.02251467  0.45956454    -0.08600
C1532       C  0.70995445  0.99984052  0.44582419    -0.06000
C1533       C  0.73354172  0.01499601  0.42249217    -0.00100
C1534       C  0.74351938  0.05566430  0.41341600    -0.08500
C1535       C  0.76926426  0.07455237  0.38889436     0.61900
H1536       H  0.73147625  0.10732150  0.41893375     0.12500
H1537       H  0.70202232  0.96890470  0.45296428     0.12600
C1538       C  0.66872636  0.00409813  0.48411780     0.62100
F1539       F  0.77188428  0.11244592  0.38205632    -0.23100
F1540       F  0.75138591  0.04700675  0.36787994    -0.20400
F1541       F  0.80931238  0.08205215  0.39332383    -0.20100
F1542       F  0.62840081  0.99573305  0.47951360    -0.20100
F1543       F  0.68623508  0.03274347  0.50462329    -0.20500
F1544       F  0.66700120  0.96693846  0.49180872    -0.23100
C1545       C  0.48530466  0.11907004  0.34911874    -0.06000
C1546       C  0.50944365  0.12386050  0.32664948     0.00000
C1547       C  0.54504081  0.11883388  0.32931793    -0.08600
C1548       C  0.55641157  0.11223982  0.35456570    -0.06000
C1549       C  0.53489870  0.11208854  0.37705966    -0.00100
C1550       C  0.49792312  0.11372553  0.37450414    -0.08500
C1551       C  0.47296667  0.11082674  0.39861797     0.61900
H1552       H  0.45787711  0.12220256  0.34697416     0.12500
H1553       H  0.58461555  0.11065160  0.35718502     0.12600
C1554       C  0.57314919  0.12312443  0.30641166     0.62100
F1555       F  0.43763614  0.11285886  0.39207802    -0.23100
F1556       F  0.49720525  0.14359273  0.41578539    -0.20400
F1557       F  0.46065820  0.07287714  0.41123891    -0.20100
F1558       F  0.59767288  0.16520606  0.29976623    -0.20100
F1559       F  0.54956414  0.10061500  0.28476251    -0.20500
F1560       F  0.59959222  0.10783203  0.31280792    -0.23100
C1561       C  0.27223054  0.72745037  0.06212143    -0.06000
C1562       C  0.26005926  0.68774125  0.07337808     0.00000
C1563       C  0.29048505  0.67538674  0.07745015    -0.08600
C1564       C  0.33130964  0.70255157  0.06926127    -0.06000
C1565       C  0.34433178  0.74363093  0.06077287    -0.00100
C1566       C  0.31458412  0.75663993  0.05716714    -0.08500
C1567       C  0.32823589  0.80177790  0.04961840     0.61900
H1568       H  0.24875964  0.73641900  0.05890451     0.12500
H1569       H  0.35501229  0.69408443  0.07305020     0.12600
C1570       C  0.28111206  0.63473675  0.09140296     0.62100
F1571       F  0.29448570  0.80746189  0.04492403    -0.23100
F1572       F  0.35177147  0.81236961  0.02698384    -0.20400
F1573       F  0.35213679  0.82870870  0.06979644    -0.20100
F1574       F  0.24995492  0.60053314  0.07805184    -0.20100
F1575       F  0.26900393  0.63535992  0.11700047    -0.20500
F1576       F  0.31554532  0.62939566  0.09277864    -0.23100
C1577       C  0.41822777  0.68709887  0.04364511    -0.06000
C1578       C  0.45201720  0.70098587  0.06127896     0.00000
C1579       C  0.47051032  0.67575147  0.06535997    -0.08600
C1580       C  0.44987745  0.63410210  0.05512523    -0.06000
C1581       C  0.41227834  0.61818908  0.04054011    -0.00100
C1582       C  0.39850286  0.64638685  0.03283923    -0.08500
C1583       C  0.36147587  0.63392623  0.01457729     0.61900
H1584       H  0.40592973  0.70772778  0.03901317     0.12500
H1585       H  0.46055120  0.61249432  0.06080336     0.12600
C1586       C  0.51094296  0.69257885  0.08087279     0.62100
F1587       F  0.32999068  0.63499605  0.02825760    -0.23100
F1588       F  0.34627209  0.59406808  0.00398243    -0.20400
F1589       F  0.37340807  0.66230693  0.99393136    -0.20100
F1590       F  0.50568631  0.70233213  0.10631471    -0.20100
F1591       F  0.54148702  0.72867938  0.06880653    -0.20500
F1592       F  0.52446307  0.66355438  0.08205343    -0.23100
C1593       C  0.54315165  0.82458209  0.21957622    -0.06000
C1594       C  0.56223657  0.80065576  0.21434189     0.00000
C1595       C  0.57651787  0.80052038  0.18866899    -0.08600
C1596       C  0.56357186  0.81710927  0.16804299    -0.06000
C1597       C  0.53820431  0.83466635  0.17274522    -0.00100
C1598       C  0.53100265  0.84211461  0.19898215    -0.08500
C1599       C  0.50755686  0.86506876  0.20508750     0.61900
H1600       H  0.53332147  0.82500205  0.23954689     0.12500
H1601       H  0.56968165  0.81265604  0.14781344     0.12600
C1602       C  0.59961259  0.77733827  0.18231851     0.62100
F1603       F  0.50465597  0.86929978  0.23197383    -0.23100
F1604       F  0.46757722  0.84314401  0.19463231    -0.20400
F1605       F  0.52833456  0.90506795  0.19428617    -0.20100
F1606       F  0.57218426  0.73440324  0.18235242    -0.20100
F1607       F  0.63090709  0.78705169  0.20082617    -0.20500
F1608       F  0.61781558  0.78848126  0.15774560    -0.23100
C1609       C  0.34537366  0.81113055  0.14832548    -0.06000
C1610       C  0.38269400  0.84991082  0.14951648     0.00000
C1611       C  0.38628643  0.88178523  0.16679634    -0.08600
C1612       C  0.35562424  0.87057344  0.18616764    -0.06000
C1613       C  0.32161370  0.82924151  0.18753922    -0.00100
C1614       C  0.31381235  0.80086178  0.16654965    -0.08500
C1615       C  0.27336725  0.75941048  0.16291235     0.61900
H1616       H  0.34169570  0.78776790  0.13382713     0.12500
H1617       H  0.36009543  0.89269926  0.20172404     0.12600
C1618       C  0.42309628  0.92629303  0.16563910     0.62100
F1619       F  0.25816198  0.75750057  0.13756615    -0.23100
F1620       F  0.24297145  0.75508605  0.18019785    -0.20400
F1621       F  0.28060386  0.72615062  0.16644159    -0.20100
F1622       F  0.41965439  0.95257180  0.18372231    -0.20100
F1623       F  0.42491793  0.94263421  0.14072173    -0.20500
F1624       F  0.45971206  0.92612636  0.17091145    -0.23100
C1625       C  0.98172817  0.05335478  0.16825436    -0.06000
C1626       C  0.96486013  0.07685572  0.15748341     0.00000
C1627       C  0.99247524  0.11792746  0.14794498    -0.08600
C1628       C  0.03416411  0.12958154  0.14288595    -0.06000
C1629       C  0.04920606  0.10231667  0.14925644    -0.00100
C1630       C  0.02401761  0.06596343  0.16461446    -0.08500
C1631       C  0.04148367  0.03992634  0.17631446     0.61900
H1632       H  0.96069888  0.02241508  0.17624627     0.12500
H1633       H  0.05414866  0.15886091  0.13269922     0.12600
C1634       C  0.97739907  0.14816825  0.14068278     0.62100
F1635       F  0.01438854  0.01080229  0.19420071    -0.23100
F1636       F  0.07846537  0.06620944  0.18953571    -0.20400
F1637       F  0.04859315  0.01855997  0.15654273    -0.20100
F1638       F  0.93727219  0.13395251  0.14934537    -0.20100
F1639       F  0.97808875  0.15301285  0.11365037    -0.20500
F1640       F  0.00333291  0.18698517  0.15226655    -0.23100
C1641       C  0.88201615  0.90826746  0.16192318    -0.06000
C1642       C  0.86094578  0.90258015  0.13771444     0.00000
C1643       C  0.85272924  0.86784654  0.12169931    -0.08600
C1644       C  0.87261569  0.84462863  0.12803115    -0.06000
C1645       C  0.89954411  0.85488102  0.15008833    -0.00100
C1646       C  0.90033187  0.88380500  0.16880757    -0.08500
C1647       C  0.91956006  0.88973635  0.19603973     0.61900
H1648       H  0.88605037  0.93343171  0.17499791     0.12500
H1649       H  0.87039353  0.82091484  0.11439862     0.12600
C1650       C  0.82354445  0.85605971  0.09801992     0.62100
F1651       F  0.88973827  0.88249795  0.21463419    -0.23100
F1652       F  0.95194181  0.93069690  0.19890722    -0.20400
F1653       F  0.93411010  0.86219420  0.20099541    -0.20100
F1654       F  0.83957295  0.88803262  0.07953716    -0.20100
F1655       F  0.78530421  0.84964839  0.10611010    -0.20500
F1656       F  0.81723630  0.81936036  0.08611037    -0.23100
C1657       C  0.62565979  0.90272108  0.11596416    -0.06000
C1658       C  0.61450383  0.89888173  0.08891332     0.00000
C1659       C  0.64537572  0.90874822  0.06986479    -0.08600
C1660       C  0.68705753  0.92649642  0.07862137    -0.06000
C1661       C  0.69867183  0.93538556  0.10556081    -0.00100
C1662       C  0.66728541  0.92126423  0.12470016    -0.08500
C1663       C  0.67757762  0.92787387  0.15398360     0.61900
H1664       H  0.60133308  0.89304860  0.13043775     0.12500
H1665       H  0.71149642  0.93630843  0.06419745     0.12600
C1666       C  0.63484260  0.90272988  0.04062205     0.62100
F1667       F  0.64210430  0.91254833  0.16912450    -0.23100
F1668       F  0.70237382  0.97045307  0.15939781    -0.20400
F1669       F  0.69847375  0.90696838  0.16143013    -0.20100
F1670       F  0.60903602  0.86028084  0.03524701    -0.20100
F1671       F  0.67014323  0.91722434  0.02540779    -0.20500
F1672       F  0.61486400  0.92462310  0.03329438    -0.23100
C1673       C  0.96788880  0.14338024  0.04826689    -0.06000
C1674       C  0.92619353  0.13316225  0.04862341     0.00000
C1675       C  0.90923079  0.14446024  0.02696052    -0.08600
C1676       C  0.93279718  0.15901682  0.00373425    -0.06000
C1677       C  0.97227183  0.16279845  0.00222397    -0.00100
C1678       C  0.99114433  0.15735645  0.02524445    -0.08500
C1679       C  0.03423791  0.16250537  0.02501128     0.61900
H1680       H  0.98034415  0.13500494  0.06518746     0.12500
H1681       H  0.91934081  0.16428295  0.98603865     0.12600
C1682       C  0.86543787  0.13785765  0.02759608     0.62100
F1683       F  0.04726181  0.15732067  0.04977855    -0.23100
F1684       F  0.06221935  0.20251894  0.01646785    -0.20400
F1685       F  0.03427841  0.13284987  0.00835915    -0.20100
F1686       F  0.86236605  0.16032856  0.04842917    -0.20100
F1687       F  0.83645737  0.09559744  0.03053144    -0.20500
F1688       F  0.85555690  0.15151123  0.00464206    -0.23100
C1689       C  0.83694174  0.96300917  0.97657718    -0.06000
C1690       C  0.80076763  0.92351984  0.97354924     0.00000
C1691       C  0.76887518  0.90960862  0.99272882    -0.08600
C1692       C  0.77681551  0.93396049  0.01575287    -0.06000
C1693       C  0.81516242  0.97080715  0.01987350    -0.00100
C1694       C  0.84517217  0.98651363  0.99974086    -0.08500
C1695       C  0.88649538  0.02703498  0.00323613     0.61900
H1696       H  0.86053547  0.97359902  0.96151224     0.12500
H1697       H  0.75433073  0.92298706  0.03150181     0.12600
C1698       C  0.72790586  0.86831216  0.98990018     0.62100
F1699       F  0.90868893  0.02315993  0.02411969    -0.23100
F1700       F  0.87894606  0.05953627  0.00813878    -0.20400
F1701       F  0.91097734  0.03728554  0.98102443    -0.20100
F1702       F  0.73520963  0.83481656  0.98928324    -0.20100
F1703       F  0.70771758  0.86888399  0.96689307    -0.20500
F1704       F  0.70146555  0.86172759  0.01066743    -0.23100
C1705       C  0.32335538  0.55637106  0.33063126    -0.06000
C1706       C  0.30275053  0.51948672  0.31556192     0.00000
C1707       C  0.32719087  0.50746965  0.30044837    -0.08600
C1708       C  0.36886368  0.53790060  0.29492526    -0.06000
C1709       C  0.38763211  0.57791354  0.30661380    -0.00100
C1710       C  0.36625219  0.58495207  0.32727275    -0.08500
C1711       C  0.38821278  0.62263588  0.34535885     0.61900
H1712       H  0.30508264  0.56478622  0.34306592     0.12500
H1713       H  0.38674404  0.53089984  0.28120918     0.12600
C1714       C  0.30929059  0.46236844  0.29088885     0.62100
F1715       F  0.36398041  0.61930919  0.36677234    -0.23100
F1716       F  0.39674797  0.65841467  0.33166938    -0.20400
F1717       F  0.42494686  0.62600222  0.35483957    -0.20100
F1718       F  0.33753941  0.45752550  0.27587716    -0.20100
F1719       F  0.27378483  0.44972195  0.27583883    -0.20500
F1720       F  0.29929708  0.43603455  0.31247540    -0.23100
C1721       C  0.19898250  0.65786406  0.32210218    -0.06000
C1722       C  0.24186535  0.68075267  0.32841342     0.00000
C1723       C  0.26313650  0.65820321  0.33286443    -0.08600
C1724       C  0.24370842  0.61556043  0.32562666    -0.06000
C1725       C  0.20295191  0.59421491  0.31531921    -0.00100
C1726       C  0.17890375  0.61440415  0.31557927    -0.08500
C1727       C  0.13331564  0.59085873  0.30751138     0.61900
H1728       H  0.18275886  0.67525876  0.31891229     0.12500
H1729       H  0.26150090  0.59940446  0.32662787     0.12600
C1730       C  0.30812549  0.67935271  0.34219850     0.62100
F1731       F  0.11564811  0.61633121  0.30877937    -0.23100
F1732       F  0.11167038  0.55698528  0.32423098    -0.20400
F1733       F  0.12910609  0.57622345  0.28196596    -0.20100
F1734       F  0.32310810  0.72077579  0.34982419    -0.20100
F1735       F  0.33255764  0.67855876  0.32212205    -0.20500
F1736       F  0.31134712  0.65761524  0.36362355    -0.23100
C1737       C  0.29396448  0.47193259  0.21023882    -0.06000
C1738       C  0.25226825  0.43921409  0.21010984     0.00000
C1739       C  0.23641833  0.41080639  0.18854483    -0.08600
C1740       C  0.26169528  0.41922595  0.16627563    -0.06000
C1741       C  0.30200262  0.45438352  0.16556035    -0.00100
C1742       C  0.31927446  0.48005884  0.18819013    -0.08500
C1743       C  0.36342155  0.51748405  0.18831524     0.61900
H1744       H  0.30554610  0.49314584  0.22702580     0.12500
H1745       H  0.24916211  0.40022608  0.14861704     0.12600
C1746       C  0.19233109  0.37350365  0.18847246     0.62100
F1747       F  0.37522773  0.53649494  0.21288749    -0.23100
F1748       F  0.36624881  0.54735916  0.17043237    -0.20400
F1749       F  0.39100953  0.50420537  0.18143200    -0.20100
F1750       F  0.16403982  0.38744338  0.19052507    -0.20100
F1751       F  0.18769487  0.34754840  0.20959600    -0.20500
F1752       F  0.18318421  0.34983236  0.16559852    -0.23100
C1753       C  0.07638287  0.50151826  0.17960254    -0.06000
C1754       C  0.07685215  0.48237423  0.15580805     0.00000
C1755       C  0.08786550  0.45074517  0.15592174    -0.08600
C1756       C  0.10587124  0.44510223  0.17885102    -0.06000
C1757       C  0.11182611  0.46945217  0.20156844    -0.00100
C1758       C  0.09445426  0.49619560  0.20260930    -0.08500
C1759       C  0.09830537  0.52243575  0.22671110     0.61900
H1760       H  0.06727195  0.52540052  0.17930810     0.12500
H1761       H  0.11737434  0.42312509  0.17844692     0.12600
C1762       C  0.08307249  0.42428628  0.13190203     0.62100
F1763       F  0.07026421  0.53695557  0.22560960    -0.23100
F1764       F  0.13795887  0.55675984  0.22832411    -0.20400
F1765       F  0.09093433  0.49912663  0.24939694    -0.20100
F1766       F  0.06579564  0.38239160  0.13916165    -0.20100
F1767       F  0.12178317  0.43776424  0.12112837    -0.20500
F1768       F  0.05714003  0.42685333  0.11300083    -0.23100
C1769       C  0.67143784  0.22016489  0.18471234    -0.06000
C1770       C  0.69348043  0.21055175  0.20353967     0.00000
C1771       C  0.67035563  0.17613727  0.22091374    -0.08600
C1772       C  0.62721829  0.15971078  0.22313635    -0.06000
C1773       C  0.60602465  0.17362257  0.20679412    -0.00100
C1774       C  0.62741329  0.20004028  0.18515524    -0.08500
C1775       C  0.60378445  0.20562858  0.16239654     0.61900
H1776       H  0.68888280  0.24485104  0.17054713     0.12500
H1777       H  0.61032118  0.13738830  0.23869246     0.12600
C1778       C  0.68946301  0.15614385  0.23798766     0.62100
F1779       F  0.63040626  0.23532940  0.14452619    -0.23100
F1780       F  0.57677057  0.21814885  0.17128379    -0.20400
F1781       F  0.58094887  0.16748218  0.14939574    -0.20100
F1782       F  0.73217171  0.17560380  0.23547100    -0.20100
F1783       F  0.67255854  0.11432529  0.23068233    -0.20500
F1784       F  0.67989736  0.15746933  0.26407789    -0.23100
C1785       C  0.85101880  0.12953639  0.18013435    -0.06000
C1786       C  0.81717053  0.11002098  0.16236453     0.00000
C1787       C  0.78529342  0.12062537  0.16294449    -0.08600
C1788       C  0.78817546  0.15004380  0.18193770    -0.06000
C1789       C  0.82228522  0.16957116  0.19951516    -0.00100
C1790       C  0.85485857  0.16030461  0.19811011    -0.08500
C1791       C  0.89423457  0.18421008  0.21479030     0.61900
H1792       H  0.87517202  0.12120190  0.17932747     0.12500
H1793       H  0.76446567  0.15904513  0.18271570     0.12600
C1794       C  0.74849732  0.10088896  0.14384285     0.62100
F1795       F  0.92210472  0.17016727  0.21054468    -0.23100
F1796       F  0.88420715  0.17916580  0.24121820    -0.20400
F1797       F  0.91389333  0.22665667  0.20855372    -0.20100
F1798       F  0.72880579  0.05739187  0.14543346    -0.20100
F1799       F  0.76223970  0.11332505  0.11839679    -0.20500
F1800       F  0.71945672  0.11298955  0.14925404    -0.23100
C1801       C  0.82242535  0.43109981  0.23409946    -0.06000
C1802       C  0.80949074  0.39875904  0.21551123     0.00000
C1803       C  0.78556521  0.39876052  0.19325340    -0.08600
C1804       C  0.77009195  0.42722216  0.19290789    -0.06000
C1805       C  0.77714583  0.45436914  0.21424923    -0.00100
C1806       C  0.80673976  0.45877742  0.23391811    -0.08500
C1807       C  0.81900749  0.48855439  0.25714215     0.61900
H1808       H  0.84209094  0.43233149  0.25053056     0.12500
H1809       H  0.74855954  0.42496084  0.17753826     0.12600
C1810       C  0.77373077  0.36707615  0.17102367     0.62100
F1811       F  0.80225414  0.46507209  0.27974836    -0.23100
F1812       F  0.80542138  0.51727396  0.25451345    -0.20400
F1813       F  0.86200617  0.51095405  0.25968879    -0.20100
F1814       F  0.74958895  0.32658632  0.18057929    -0.20100
F1815       F  0.80947376  0.37117195  0.15995231    -0.20500
F1816       F  0.75115844  0.37322243  0.15127129    -0.23100
C1817       C  0.96442480  0.32264367  0.27348298    -0.06000
C1818       C  0.95227676  0.34410708  0.25525861     0.00000
C1819       C  0.97793456  0.38872446  0.25368530    -0.08600
C1820       C  0.01516151  0.40896924  0.26921772    -0.06000
C1821       C  0.02857851  0.38667391  0.28548626    -0.00100
C1822       C  0.00140230  0.34290318  0.28857254    -0.08500
C1823       C  0.01039448  0.31585817  0.30727963     0.61900
H1824       H  0.94491164  0.28885570  0.27615455     0.12500
H1825       H  0.03557954  0.44277049  0.26767978     0.12600
C1826       C  0.96730781  0.41472486  0.23516589     0.62100
F1827       F  0.97741192  0.29527425  0.32439189    -0.23100
F1828       F  0.04623303  0.33906006  0.32228530    -0.20400
F1829       F  0.01444807  0.28607177  0.29298168    -0.20100
F1830       F  0.92899290  0.40994398  0.24139741    -0.20100
F1831       F  0.96618802  0.40175387  0.20945529    -0.20500
F1832       F  0.99648102  0.45728162  0.23675486    -0.23100
C1833       C  0.71027191  0.21363071  0.32888488    -0.06000
C1834       C  0.72872642  0.19214184  0.31769795     0.00000
C1835       C  0.72325028  0.15475441  0.32978408    -0.08600
C1836       C  0.70057227  0.14124265  0.35348175    -0.06000
C1837       C  0.68433219  0.16451771  0.36532153    -0.00100
C1838       C  0.68811750  0.20073905  0.35233884    -0.08500
C1839       C  0.66828669  0.22572623  0.36241762     0.61900
H1840       H  0.71482980  0.24223057  0.31951359     0.12500
H1841       H  0.69678917  0.11336219  0.36348697     0.12600
C1842       C  0.74099415  0.12933891  0.31782366     0.62100
F1843       F  0.67321091  0.25719572  0.34508624    -0.23100
F1844       F  0.68603825  0.24491953  0.38621496    -0.20400
F1845       F  0.62607729  0.19919118  0.36534182    -0.20100
F1846       F  0.78394618  0.15114870  0.32050630    -0.20100
F1847       F  0.73018008  0.12209330  0.29136415    -0.20500
F1848       F  0.72587242  0.09060448  0.33004487    -0.23100
C1849       C  0.83232373  0.31292646  0.35164486    -0.06000
C1850       C  0.86077228  0.33413946  0.33163035     0.00000
C1851       C  0.89338824  0.37585668  0.33570071    -0.08600
C1852       C  0.89489497  0.39616203  0.35948237    -0.06000
C1853       C  0.86312856  0.37673901  0.37833130    -0.00100
C1854       C  0.83196041  0.33351834  0.37471809    -0.08500
C1855       C  0.79592605  0.30938540  0.39340140     0.61900
H1856       H  0.80736781  0.28097088  0.34773058     0.12500
H1857       H  0.91890831  0.42877656  0.36229465     0.12600
C1858       C  0.92497739  0.39907281  0.31449020     0.62100
F1859       F  0.77566919  0.26630425  0.38881910    -0.23100
F1860       F  0.76709943  0.32257754  0.39027970    -0.20400
F1861       F  0.81037437  0.31594458  0.41900398    -0.20100
F1862       F  0.90498734  0.40181843  0.29200639    -0.20100
F1863       F  0.94513260  0.37705528  0.30898787    -0.20500
F1864       F  0.95461767  0.43954329  0.32216870    -0.23100
C1865       C  0.65129195  0.39532579  0.49955685    -0.06000
C1866       C  0.63461330  0.41837189  0.48777275     0.00000
C1867       C  0.66246405  0.45942808  0.47842734    -0.08600
C1868       C  0.70407177  0.47054716  0.47340313    -0.06000
C1869       C  0.71899500  0.44356619  0.48087993    -0.00100
C1870       C  0.69376515  0.40799121  0.49671968    -0.08500
C1871       C  0.71084358  0.38162848  0.50855206     0.61900
H1872       H  0.63016961  0.36490780  0.50805090     0.12500
H1873       H  0.72474118  0.49970526  0.46333759     0.12600
C1874       C  0.64764691  0.49089514  0.47456485     0.62100
F1875       F  0.68321913  0.35218851  0.52596041    -0.23100
F1876       F  0.74733340  0.40709680  0.52244437    -0.20400
F1877       F  0.71856359  0.36086255  0.48868537    -0.20100
F1878       F  0.63457821  0.49762499  0.49855129    -0.20100
F1879       F  0.61458610  0.47582597  0.45687762    -0.20500
F1880       F  0.67923404  0.52925291  0.46548031    -0.23100
C1881       C  0.56961126  0.26167781  0.49141855    -0.06000
C1882       C  0.53234203  0.24603153  0.47694610     0.00000
C1883       C  0.50500879  0.20168590  0.47634927    -0.08600
C1884       C  0.52113355  0.17516381  0.48382369    -0.06000
C1885       C  0.56160206  0.19196230  0.49473811    -0.00100
C1886       C  0.58193293  0.23446953  0.50260039    -0.08500
C1887       C  0.61988160  0.25242878  0.51990014     0.61900
H1888       H  0.58911467  0.29539530  0.49420967     0.12500
H1889       H  0.50398841  0.14193823  0.47877942     0.12600
C1890       C  0.46010466  0.18269213  0.46735363     0.62100
F1891       F  0.61938379  0.28115079  0.53726967    -0.23100
F1892       F  0.65474893  0.27204930  0.50422503    -0.20400
F1893       F  0.62036727  0.22089026  0.53470267    -0.20100
F1894       F  0.45844654  0.19234721  0.44128198    -0.20100
F1895       F  0.44041376  0.19874086  0.48244750    -0.20500
F1896       F  0.43849848  0.13923302  0.47003373    -0.23100
C1897       C  0.63346738  0.51706720  0.34454063    -0.06000
C1898       C  0.61970689  0.49419069  0.32082698     0.00000
C1899       C  0.58113819  0.45609157  0.32016216    -0.08600
C1900       C  0.56333889  0.43667829  0.34401972    -0.06000
C1901       C  0.58144638  0.45593133  0.36816519    -0.00100
C1902       C  0.61473016  0.49809116  0.36863466    -0.08500
C1903       C  0.63207937  0.52123127  0.39443102     0.61900
H1904       H  0.66175885  0.54747334  0.34453071     0.12500
H1905       H  0.53592122  0.40550443  0.34379838     0.12600
C1906       C  0.55937726  0.43401527  0.29472748     0.62100
F1907       F  0.66394932  0.56226503  0.39055715    -0.23100
F1908       F  0.64759125  0.50033035  0.40928612    -0.20400
F1909       F  0.60078354  0.52260044  0.40816190    -0.20100
F1910       F  0.56013299  0.39679790  0.29239234    -0.20100
F1911       F  0.57772633  0.45872963  0.27277305    -0.20500
F1912       F  0.51840666  0.42495779  0.29520791    -0.23100
C1913       C  0.47194425  0.30450522  0.33342909    -0.06000
C1914       C  0.47048370  0.28703388  0.35841539     0.00000
C1915       C  0.45752171  0.24352373  0.36027941    -0.08600
C1916       C  0.45435169  0.22123547  0.33722849    -0.06000
C1917       C  0.46062473  0.24008662  0.31245048    -0.00100
C1918       C  0.46671016  0.28121935  0.31021222    -0.08500
C1919       C  0.46852662  0.30021212  0.28345034     0.61900
H1920       H  0.48003829  0.33722721  0.33210285     0.12500
H1921       H  0.44816917  0.18902730  0.33866566     0.12600
C1922       C  0.44807554  0.21943894  0.38597094     0.62100
F1923       F  0.47148304  0.33927010  0.28533064    -0.23100
F1924       F  0.43246466  0.27381999  0.26942434    -0.20400
F1925       F  0.50278999  0.30481160  0.27004898    -0.20100
F1926       F  0.44416403  0.24125119  0.40688193    -0.20100
F1927       F  0.47960929  0.21066877  0.39142955    -0.20500
F1928       F  0.41070846  0.18184118  0.38349008    -0.23100
C1929       C  0.94892917  0.05233452  0.37158601    -0.06000
C1930       C  0.92969677  0.05726744  0.39399928     0.00000
C1931       C  0.95386220  0.09118076  0.41135416    -0.08600
C1932       C  0.99751215  0.11268089  0.40918792    -0.06000
C1933       C  0.01726974  0.10277862  0.38928541    -0.00100
C1934       C  0.99273494  0.07523766  0.36876680    -0.08500
C1935       C  0.01295780  0.06902207  0.34482808     0.61900
H1936       H  0.92985195  0.02829470  0.35731595     0.12500
H1937       H  0.01663098  0.13556514  0.42414297     0.12600
C1938       C  0.93364926  0.10500605  0.43171414     0.62100
F1939       F  0.98367869  0.04170345  0.32671508    -0.23100
F1940       F  0.03796186  0.05274285  0.35242541    -0.20400
F1941       F  0.03710716  0.10747792  0.33258970    -0.20100
F1942       F  0.92072903  0.07785371  0.45298490    -0.20100
F1943       F  0.89973997  0.10565106  0.42045165    -0.20500
F1944       F  0.96119428  0.14521552  0.44075961    -0.23100
C1945       C  0.13185064  0.30076436  0.32677646    -0.06000
C1946       C  0.15786560  0.34344422  0.33331505     0.00000
C1947       C  0.18174399  0.35412762  0.35722364    -0.08600
C1948       C  0.17850048  0.32148179  0.37356204    -0.06000
C1949       C  0.15278401  0.27900260  0.36685348    -0.00100
C1950       C  0.12862754  0.26821716  0.34323572    -0.08500
C1951       C  0.09872099  0.22259583  0.33571798     0.61900
H1952       H  0.11349071  0.29303576  0.30872960     0.12500
H1953       H  0.19669810  0.32889490  0.39166894     0.12600
C1954       C  0.21118125  0.39954566  0.36558832     0.62100
F1955       F  0.07249304  0.21943382  0.31504245    -0.23100
F1956       F  0.07408782  0.20124856  0.35699316    -0.20400
F1957       F  0.12091912  0.20341876  0.32808100    -0.20100
F1958       F  0.18843381  0.41764980  0.37413460    -0.20100
F1959       F  0.23576653  0.42242288  0.34469638    -0.20500
F1960       F  0.23758411  0.40214486  0.38600681    -0.23100
C1961       C  0.10307101  0.01620172  0.36347014    -0.06000
C1962       C  0.12980865  0.03242697  0.38561416     0.00000
C1963       C  0.14170501  0.00596505  0.39893562    -0.08600
C1964       C  0.12068012  0.96259317  0.39268384    -0.06000
C1965       C  0.08851712  0.94525739  0.37357034    -0.00100
C1966       C  0.08192774  0.97284735  0.35730818    -0.08500
C1967       C  0.05176645  0.95789754  0.33410069     0.61900
H1968       H  0.09603819  0.03693622  0.35202909     0.12500
H1969       H  0.12613041  0.94125655  0.40473575     0.12600
C1970       C  0.17606144  0.02324567  0.41970456     0.62100
F1971       F  0.07299737  0.97850276  0.31158888    -0.23100
F1972       F  0.02073433  0.96749313  0.33843034    -0.20400
F1973       F  0.03346938  0.91497009  0.32974312    -0.20100
F1974       F  0.16238730  0.03282799  0.44240774    -0.20100
F1975       F  0.21032312  0.05931546  0.41029228    -0.20500
F1976       F  0.18859979  0.99441608  0.42602617    -0.23100
C1977       C  0.29454622  0.25043891  0.44214490    -0.06000
C1978       C  0.28483002  0.23489195  0.41599641     0.00000
C1979       C  0.31704527  0.23682338  0.40037323    -0.08600
C1980       C  0.35810539  0.25700347  0.41097670    -0.06000
C1981       C  0.36770024  0.27459353  0.43665700    -0.00100
C1982       C  0.33510047  0.26953514  0.45288995    -0.08500
C1983       C  0.34348202  0.28635222  0.48092844     0.61900
H1984       H  0.27028066  0.24943227  0.45403427     0.12500
H1985       H  0.38366022  0.26149367  0.39866360     0.12600
C1986       C  0.30881332  0.22048047  0.37224853     0.62100
F1987       F  0.30729059  0.27851346  0.49340212    -0.23100
F1988       F  0.37048639  0.32950491  0.48089107    -0.20400
F1989       F  0.36117782  0.26700790  0.49531587    -0.20100
F1990       F  0.29193185  0.24049856  0.35771628    -0.20100
F1991       F  0.28122479  0.17748124  0.37214515    -0.20500
F1992       F  0.34498323  0.22762753  0.36003385    -0.23100
C1993       C  0.22625087  0.18739496  0.51875696    -0.06000
C1994       C  0.22636576  0.17047001  0.49402872     0.00000
C1995       C  0.24499733  0.14504626  0.49181474    -0.08600
C1996       C  0.25190268  0.12813062  0.51487892    -0.06000
C1997       C  0.24140099  0.13695728  0.53948083    -0.00100
C1998       C  0.23342337  0.17058866  0.54192041    -0.08500
C1999       C  0.23220139  0.18790424  0.56874679     0.61900
H2000       H  0.21666980  0.21067632  0.52002404     0.12500
H2001       H  0.26116867  0.10443328  0.51338684     0.12600
C2002       C  0.25764960  0.13467940  0.46589279     0.62100
F2003       F  0.20055872  0.15730704  0.58365052    -0.23100
F2004       F  0.22594705  0.22204347  0.56667574    -0.20400
F2005       F  0.26976984  0.20100661  0.58174857    -0.20100
F2006       F  0.24712842  0.15086188  0.44438444    -0.20100
F2007       F  0.23883694  0.09144484  0.46300262    -0.20500
F2008       F  0.30045921  0.15161562  0.46610670    -0.23100
C2009       C  0.03834097  0.18485958  0.48769309    -0.06000
C2010       C  0.07217048  0.17886814  0.49335341     0.00000
C2011       C  0.08013627  0.17189626  0.51962585    -0.08600
C2012       C  0.05018726  0.16387069  0.53867141    -0.06000
C2013       C  0.01348992  0.16467680  0.53258840    -0.00100
C2014       C  0.00937347  0.17942551  0.50736793    -0.08500
C2015       C  0.97502361  0.18928621  0.50121891     0.61900
H2016       H  0.03425556  0.19271904  0.46768560     0.12500
H2017       H  0.05510125  0.15622292  0.55855555     0.12600
C2018       C  0.12096801  0.17459495  0.52754424     0.62100
F2019       F  0.97771282  0.21949688  0.51867682    -0.23100
F2020       F  0.93652672  0.15308691  0.50332447    -0.20400
F2021       F  0.97830343  0.20531414  0.47606073    -0.20100
F2022       F  0.15334217  0.21227792  0.51838320    -0.20100
F2023       F  0.12339230  0.14127879  0.51682140    -0.20500
F2024       F  0.12550596  0.17379368  0.55465397    -0.23100
C2025       C  0.65433088  0.19387616  0.01064209    -0.06000
C2026       C  0.63462068  0.15706987  0.99555766     0.00000
C2027       C  0.66034702  0.14413872  0.98331200    -0.08600
C2028       C  0.70127904  0.17507804  0.97644617    -0.06000
C2029       C  0.71876219  0.21630974  0.98638372    -0.00100
C2030       C  0.69691172  0.22359655  0.00682258    -0.08500
C2031       C  0.71687018  0.26375533  0.02287814     0.61900
H2032       H  0.63513620  0.20213284  0.02225522     0.12500
H2033       H  0.71932332  0.16737868  0.96331528     0.12600
C2034       C  0.64337501  0.09782295  0.97788536     0.62100
F2035       F  0.69042123  0.26358858  0.04196240    -0.23100
F2036       F  0.72707282  0.29724573  0.00632705    -0.20400
F2037       F  0.75237648  0.26873656  0.03551171    -0.20100
F2038       F  0.60968578  0.08250925  0.96066097    -0.20100
F2039       F  0.63024056  0.07584436  0.00133626    -0.20500
F2040       F  0.67362367  0.09067104  0.96751062    -0.23100
C2041       C  0.45914031  0.98867803  0.01890363    -0.06000
C2042       C  0.47280708  0.98949660  0.99299217     0.00000
C2043       C  0.48552842  0.96024640  0.98589456    -0.08600
C2044       C  0.48733347  0.93394647  0.00563413    -0.06000
C2045       C  0.47674376  0.93554097  0.03203703    -0.00100
C2046       C  0.46073037  0.96226624  0.03857469    -0.08500
C2047       C  0.44507936  0.96309633  0.06599380     0.61900
H2048       H  0.44834154  0.01026141  0.02396123     0.12500
H2049       H  0.49844103  0.91260094  0.00065761     0.12600
C2050       C  0.49852706  0.95744665  0.95803060     0.62100
F2051       F  0.42507695  0.98643524  0.06670342    -0.23100
F2052       F  0.47824037  0.98112205  0.08366123    -0.20400
F2053       F  0.41687794  0.92248193  0.07391824    -0.20100
F2054       F  0.53218101  0.99576423  0.95083405    -0.20100
F2055       F  0.46553787  0.94680302  0.94072640    -0.20500
F2056       F  0.51011036  0.92705357  0.95575026    -0.23100
C2057       C  0.52568241  0.26416367  0.98601680    -0.06000
C2058       C  0.55641998  0.25526898  0.97734194     0.00000
C2059       C  0.59915548  0.28777661  0.97937954    -0.08600
C2060       C  0.60883149  0.32795939  0.98839022    -0.06000
C2061       C  0.57786887  0.33849700  0.99208633    -0.00100
C2062       C  0.53577802  0.30566528  0.99278876    -0.08500
C2063       C  0.50182290  0.31547545  0.99943547     0.61900
H2064       H  0.49337063  0.23920249  0.98550814     0.12500
H2065       H  0.64081896  0.35351353  0.98788396     0.12600
C2066       C  0.63493511  0.28171417  0.97074307     0.62100
F2067       F  0.46375035  0.27904807  0.00276561    -0.23100
F2068       F  0.49758626  0.33896535  0.97948393    -0.20400
F2069       F  0.51224672  0.33836794  0.02267078    -0.20100
F2070       F  0.63412218  0.27757154  0.94361680    -0.20100
F2071       F  0.63163958  0.24626148  0.98252521    -0.20500
F2072       F  0.67342096  0.31553047  0.97773509    -0.23100
C2073       C  0.65196046  0.10153346  0.85450133    -0.06000
C2074       C  0.62937796  0.09387198  0.83090555     0.00000
C2075       C  0.58526820  0.07339024  0.83118537    -0.08600
C2076       C  0.56554976  0.06359677  0.85563185    -0.06000
C2077       C  0.58871316  0.07737364  0.87917399    -0.00100
C2078       C  0.63241677  0.09475146  0.87884569    -0.08500
C2079       C  0.65819228  0.10630832  0.90401937     0.61900
H2080       H  0.68553269  0.11676953  0.85374682     0.12500
H2081       H  0.53201268  0.05047892  0.85613900     0.12600
C2082       C  0.55749014  0.06315960  0.80685612     0.62100
F2083       F  0.70022986  0.12271472  0.89918947    -0.23100
F2084       F  0.64457588  0.07019180  0.91887238    -0.20400
F2085       F  0.65400347  0.13615637  0.91809471    -0.20100
F2086       F  0.53000582  0.02015413  0.80587167    -0.20100
F2087       F  0.57921288  0.07499327  0.78351965    -0.20500
F2088       F  0.53473861  0.08356067  0.80864791    -0.23100
C2089       C  0.46016383  0.14141706  0.84914720    -0.06000
C2090       C  0.50135698  0.15367082  0.85609880     0.00000
C2091       C  0.53420140  0.18032684  0.83921363    -0.08600
C2092       C  0.52501408  0.19774414  0.81730097    -0.06000
C2093       C  0.48439205  0.18987399  0.81189471    -0.00100
C2094       C  0.45075084  0.15893540  0.82714643    -0.08500
C2095       C  0.40536266  0.14517529  0.82125311     0.61900
H2096       H  0.43558931  0.11978771  0.86206016     0.12500
H2097       H  0.55026985  0.21955959  0.80489724     0.12600
C2098       C  0.57883784  0.19050984  0.84425862     0.62100
F2099       F  0.37851742  0.11267692  0.83755525    -0.23100
F2100       F  0.39541829  0.13068945  0.79555786    -0.20400
F2101       F  0.39852886  0.17861849  0.82493675    -0.20100
F2102       F  0.57981068  0.15350518  0.84712727    -0.20100
F2103       F  0.59465616  0.21454299  0.86687684    -0.20500
F2104       F  0.60477923  0.21289610  0.82365112    -0.23100
C2105       C  0.95921827  0.87043580  0.85494544    -0.06000
C2106       C  0.93869448  0.84092999  0.87499444     0.00000
C2107       C  0.96040143  0.82425600  0.88884208    -0.08600
C2108       C  0.00400912  0.84402715  0.88606645    -0.06000
C2109       C  0.02591039  0.87956907  0.86972192    -0.00100
C2110       C  0.00276367  0.89018946  0.85200821    -0.08500
C2111       C  0.02230565  0.92328544  0.83074526     0.61900
H2112       H  0.94174037  0.88096200  0.84304002     0.12500
H2113       H  0.02173694  0.83490687  0.89893178     0.12600
C2114       C  0.93729188  0.78614386  0.90650938     0.62100
F2115       F  0.00587196  0.90476110  0.80651486    -0.23100
F2116       F  0.06509891  0.94113210  0.82984702    -0.20400
F2117       F  0.01293413  0.95483163  0.83504373    -0.20100
F2118       F  0.96348065  0.77264894  0.91667727    -0.20100
F2119       F  0.90604645  0.75338943  0.89198928    -0.20500
F2120       F  0.91958286  0.79556445  0.92727452    -0.23100
C2121       C  0.10341675  0.05351411  0.86706825    -0.06000
C2122       C  0.12776807  0.06019144  0.89007731     0.00000
C2123       C  0.13623255  0.09452891  0.90678099    -0.08600
C2124       C  0.11482362  0.11669587  0.90209848    -0.06000
C2125       C  0.08569887  0.10570564  0.88131114    -0.00100
C2126       C  0.08202076  0.07579605  0.86249686    -0.08500
C2127       C  0.05322176  0.06555663  0.83887717     0.61900
H2128       H  0.09799342  0.02796602  0.85393671     0.12500
H2129       H  0.11803487  0.14044724  0.91606330     0.12600
C2130       C  0.16695599  0.10725383  0.92969870     0.62100
F2131       F  0.05689446  0.03870587  0.82142819    -0.23100
F2132       F  0.06275045  0.10232244  0.82559127    -0.20400
F2133       F  0.01252617  0.04646473  0.84729356    -0.20100
F2134       F  0.17784692  0.14690302  0.93919659    -0.20100
F2135       F  0.20299325  0.10841226  0.92156370    -0.20500
F2136       F  0.14971726  0.07873448  0.95008842    -0.23100
C2137       C  0.30094060  0.00350252  0.93901464    -0.06000
C2138       C  0.28942442  0.02116034  0.91789364     0.00000
C2139       C  0.31908611  0.06241322  0.90943542    -0.08600
C2140       C  0.36015704  0.08209114  0.92040218    -0.06000
C2141       C  0.37168652  0.06293592  0.94048038    -0.00100
C2142       C  0.34104156  0.02374049  0.95057580    -0.08500
C2143       C  0.35143800  0.00245860  0.97283233     0.61900
H2144       H  0.27817654  0.97283667  0.94645093     0.12500
H2145       H  0.38422562  0.11178338  0.91247951     0.12600
C2146       C  0.30804706  0.08498634  0.88854188     0.62100
F2147       F  0.31682662  0.96537090  0.98082029    -0.23100
F2148       F  0.36671172  0.02934979  0.99431868    -0.20400
F2149       F  0.38125370  0.99289942  0.96476656    -0.20100
F2150       F  0.27549433  0.08989016  0.89721144    -0.20100
F2151       F  0.29634311  0.06180675  0.86539917    -0.20500
F2152       F  0.34131665  0.12469209  0.88321490    -0.23100
C2153       C  0.22883316  0.05703703  0.02990796    -0.06000
C2154       C  0.19945546  0.03479855  0.04962152     0.00000
C2155       C  0.16987818  0.99157206  0.04575644    -0.08600
C2156       C  0.16788508  0.97338769  0.02123887    -0.06000
C2157       C  0.19454878  0.99660641  0.00069170    -0.00100
C2158       C  0.22600310  0.03889943  0.00500236    -0.08500
C2159       C  0.25389673  0.06547732  0.98282925     0.61900
H2160       H  0.25097700  0.09019856  0.03305791     0.12500
H2161       H  0.14301067  0.94134648  0.01746601     0.12600
C2162       C  0.13770831  0.96425123  0.06595408     0.62100
F2163       F  0.22994215  0.06702661  0.96216981    -0.23100
F2164       F  0.27677722  0.04778613  0.97413073    -0.20400
F2165       F  0.28147372  0.10642681  0.99083397    -0.20100
F2166       F  0.09915338  0.95833097  0.05833670    -0.20100
F2167       F  0.14750482  0.98183538  0.09084856    -0.20500
F2168       F  0.13527183  0.92532852  0.06742589    -0.23100
C2169       C  0.02811808  0.82676400  0.98247737    -0.06000
C2170       C  0.07127448  0.84256637  0.98251095     0.00000
C2171       C  0.09072053  0.83706694  0.00547625    -0.08600
C2172       C  0.06799591  0.82460445  0.02901218    -0.06000
C2173       C  0.02635300  0.81462218  0.02955634    -0.00100
C2174       C  0.00504559  0.81225306  0.00566609    -0.08500
C2175       C  0.95902723  0.79826584  0.00501213     0.61900
H2176       H  0.01312602  0.82893152  0.96452540     0.12500
H2177       H  0.08301929  0.82416513  0.04739959     0.12600
C2178       C  0.13513101  0.84503994  0.00574495     0.62100
F2179       F  0.94434492  0.79728151  0.97965051    -0.23100
F2180       F  0.95277718  0.82623919  0.01953835    -0.20400
F2181       F  0.93611736  0.75817695  0.01543940    -0.20100
F2182       F  0.16336738  0.88764929  0.00351978    -0.20100
F2183       F  0.14014604  0.82345007  0.98512046    -0.20500
F2184       F  0.14434785  0.83099976  0.02884684    -0.23100
C2185       C  0.31473394  0.75374925  0.83652643    -0.06000
C2186       C  0.29797884  0.76618776  0.81568348     0.00000
C2187       C  0.32627726  0.80113232  0.80015308    -0.08600
C2188       C  0.36868420  0.81338122  0.80062313    -0.06000
C2189       C  0.38430842  0.79425419  0.81756575    -0.00100
C2190       C  0.35801180  0.76760358  0.83782382    -0.08500
C2191       C  0.37487216  0.75131777  0.85930915     0.61900
H2192       H  0.29357256  0.72977061  0.84991278     0.12500
H2193       H  0.38917272  0.83575650  0.78609448     0.12600
C2194       C  0.31243207  0.82199121  0.77982141     0.62100
F2195       F  0.40790514  0.78496464  0.87211892    -0.23100
F2196       F  0.38836791  0.72595855  0.84834233    -0.20400
F2197       F  0.34494017  0.72796350  0.87784966    -0.20100
F2198       F  0.27159508  0.81232167  0.78334818    -0.20100
F2199       F  0.31650855  0.80872240  0.75513382    -0.20500
F2200       F  0.33752818  0.86538017  0.78148170    -0.23100
C2201       C  0.14773763  0.81303696  0.81646849    -0.06000
C2202       C  0.13726489  0.77404786  0.82772549     0.00000
C2203       C  0.13125248  0.76878462  0.85543998    -0.08600
C2204       C  0.13907078  0.80379911  0.87091122    -0.06000
C2205       C  0.15252250  0.84386946  0.85996479    -0.00100
C2206       C  0.15566123  0.84825258  0.83189278    -0.08500
C2207       C  0.16790418  0.88952133  0.81771637     0.61900
H2208       H  0.15191341  0.81632877  0.79533411     0.12500
H2209       H  0.13590491  0.80010371  0.89208468     0.12600
C2210       C  0.11744847  0.72686835  0.86917355     0.62100
F2211       F  0.16633272  0.88507695  0.79055030    -0.23100
F2212       F  0.20832919  0.91954360  0.82458316    -0.20400
F2213       F  0.14079317  0.90356318  0.82422023    -0.20100
F2214       F  0.15074826  0.71994002  0.87160569    -0.20100
F2215       F  0.08562388  0.69428392  0.85499875    -0.20500
F2216       F  0.10264694  0.72617172  0.89420898    -0.23100
C2217       C  0.17985468  0.54211916  0.79731971    -0.06000
C2218       C  0.20661058  0.58538865  0.80189302     0.00000
C2219       C  0.24505414  0.59865998  0.81533404    -0.08600
C2220       C  0.25787998  0.56912009  0.82067276    -0.06000
C2221       C  0.23373790  0.52691461  0.81282917    -0.00100
C2222       C  0.19295732  0.51252124  0.80262831    -0.08500
C2223       C  0.16427526  0.46615789  0.79660276     0.61900
H2224       H  0.14970162  0.53200511  0.78819230     0.12500
H2225       H  0.28899342  0.57976291  0.82844467     0.12600
C2226       C  0.27245341  0.64399298  0.82401897     0.62100
F2227       F  0.18031765  0.45361173  0.77640030    -0.23100
F2228       F  0.12474872  0.45775686  0.78915137    -0.20400
F2229       F  0.16069343  0.44269739  0.81888934    -0.20100
F2230       F  0.24938861  0.65518692  0.83973931    -0.20100
F2231       F  0.28669216  0.67017049  0.80230146    -0.20500
F2232       F  0.30678209  0.64968109  0.83850260    -0.23100
C2233       C  0.27304135  0.83059501  0.71051540    -0.06000
C2234       C  0.23103695  0.80020786  0.70682430     0.00000
C2235       C  0.21453589  0.79097711  0.68083840    -0.08600
C2236       C  0.24221038  0.80409162  0.65960877    -0.06000
C2237       C  0.28543642  0.82857317  0.66371319    -0.00100
C2238       C  0.30105329  0.84431264  0.68935823    -0.08500
C2239       C  0.34739942  0.87060251  0.69488518     0.61900
H2240       H  0.28440322  0.83986127  0.73043679     0.12500
H2241       H  0.23006643  0.79373461  0.63979206     0.12600
C2242       C  0.16823095  0.76593949  0.67484232     0.62100
F2243       F  0.35615462  0.88234140  0.72113410    -0.23100
F2244       F  0.36454295  0.90696471  0.67989693    -0.20400
F2245       F  0.36568843  0.84699098  0.68863252    -0.20100
F2246       F  0.14463217  0.76136405  0.69680231    -0.20100
F2247       F  0.15783738  0.72653597  0.66537639    -0.20500
F2248       F  0.15827259  0.78673283  0.65578548    -0.23100
C2249       C  0.18651668  0.65572234  0.67094603    -0.06000
C2250       C  0.14880698  0.64347818  0.68358039     0.00000
C2251       C  0.11081337  0.61635024  0.67066488    -0.08600
C2252       C  0.11193506  0.59629491  0.64741156    -0.06000
C2253       C  0.15001444  0.60360716  0.63676333    -0.00100
C2254       C  0.18799738  0.63750955  0.64707919    -0.08500
C2255       C  0.23064068  0.65315895  0.63492038     0.61900
H2256       H  0.21532977  0.67848707  0.68067971     0.12500
H2257       H  0.08285999  0.57260820  0.63849979     0.12600
C2258       C  0.06969251  0.60688739  0.68230711     0.62100
F2259       F  0.25873808  0.69383564  0.64319326    -0.23100
F2260       F  0.22836173  0.65414407  0.60778048    -0.20400
F2261       F  0.24627361  0.62735755  0.64224853    -0.20100
F2262       F  0.06772492  0.64356043  0.68350306    -0.20100
F2263       F  0.06672053  0.59112460  0.70738464    -0.20500
F2264       F  0.03595458  0.57753131  0.66751899    -0.23100
C2265       C  0.66890323  0.47273040  0.72012434    -0.06000
C2266       C  0.68637043  0.46061403  0.69989955     0.00000
C2267       C  0.65888379  0.42911666  0.68218084    -0.08600
C2268       C  0.61699766  0.40285622  0.68941155    -0.06000
C2269       C  0.60168742  0.40901474  0.71331197    -0.00100
C2270       C  0.62676455  0.44716365  0.72734757    -0.08500
C2271       C  0.60954006  0.46062333  0.74991622     0.61900
H2272       H  0.68971253  0.49915156  0.73254508     0.12500
H2273       H  0.59704700  0.37596092  0.67702468     0.12600
C2274       C  0.67301067  0.42285615  0.65564298     0.62100
F2275       F  0.63613676  0.50235204  0.75685572    -0.23100
F2276       F  0.60408935  0.43601329  0.77183103    -0.20400
F2277       F  0.57157310  0.45641267  0.74249473    -0.20100
F2278       F  0.64978943  0.42832312  0.63606643    -0.20100
F2279       F  0.71469419  0.45160809  0.65147786    -0.20500
F2280       F  0.66676019  0.38250749  0.65373496    -0.23100
C2281       C  0.80275490  0.34819271  0.72855149    -0.06000
C2282       C  0.78076137  0.36562653  0.71623043     0.00000
C2283       C  0.74936338  0.34082269  0.69716830    -0.08600
C2284       C  0.73662101  0.29761639  0.69443021    -0.06000
C2285       C  0.75506933  0.27905165  0.70941054    -0.00100
C2286       C  0.79151925  0.30567369  0.72440397    -0.08500
C2287       C  0.81843033  0.28881066  0.73563326     0.61900
H2288       H  0.82817640  0.36784030  0.74192708     0.12500
H2289       H  0.70872431  0.27699523  0.68310363     0.12600
C2290       C  0.72547553  0.35783435  0.68208592     0.62100
F2291       F  0.85130721  0.31875999  0.75072654    -0.23100
F2292       F  0.83456128  0.27717996  0.71502225    -0.20400
F2293       F  0.79538969  0.25397617  0.75119521    -0.20100
F2294       F  0.75264714  0.39568509  0.67018940    -0.20100
F2295       F  0.70008042  0.36346253  0.69923423    -0.20500
F2296       F  0.70064463  0.33029142  0.66239576    -0.23100
C2297       C  0.95205145  0.57825753  0.78488861    -0.06000
C2298       C  0.93967897  0.55615576  0.76057244     0.00000
C2299       C  0.96900352  0.54839597  0.74768452    -0.08600
C2300       C  0.01030868  0.56704661  0.75803355    -0.06000
C2301       C  0.02378262  0.59412131  0.78010948    -0.00100
C2302       C  0.99350162  0.59776675  0.79461050    -0.08500
C2303       C  0.00563438  0.62449134  0.81938132     0.61900
H2304       H  0.92936473  0.58232761  0.79574606     0.12500
H2305       H  0.03344749  0.56288490  0.74796569     0.12600
C2306       C  0.95781469  0.52269992  0.72246794     0.62100
F2307       F  0.97127978  0.62151981  0.83188707    -0.23100
F2308       F  0.03210812  0.66631480  0.81298844    -0.20400
F2309       F  0.02562250  0.61115484  0.83685342    -0.20100
F2310       F  0.94665434  0.54197345  0.70304919    -0.20100
F2311       F  0.92501397  0.48242870  0.72694367    -0.20500
F2312       F  0.99080089  0.51894709  0.71330108    -0.23100
C2313       C  0.85453374  0.47746439  0.84468774    -0.06000
C2314       C  0.81341871  0.46452803  0.83706178     0.00000
C2315       C  0.78022690  0.43864653  0.85410294    -0.08600
C2316       C  0.78897510  0.42138170  0.87614106    -0.06000
C2317       C  0.82950669  0.42963074  0.88197348    -0.00100
C2318       C  0.86354103  0.46117667  0.86731561    -0.08500
C2319       C  0.90906991  0.47762404  0.87469449     0.61900
H2320       H  0.87960825  0.49882638  0.83197329     0.12500
H2321       H  0.76341480  0.39952393  0.88832083     0.12600
C2322       C  0.73602066  0.43029071  0.84991227     0.62100
F2323       F  0.93538554  0.51416548  0.86109116    -0.23100
F2324       F  0.92033728  0.44795240  0.86872149    -0.20400
F2325       F  0.91537126  0.48707694  0.90132636    -0.20100
F2326       F  0.71729998  0.40451788  0.82828204    -0.20100
F2327       F  0.73736890  0.46835383  0.84642210    -0.20500
F2328       F  0.71106463  0.41045724  0.87138511    -0.23100
C2329       C  0.68074805  0.52148274  0.84776900    -0.06000
C2330       C  0.65372159  0.47934140  0.85474517     0.00000
C2331       C  0.64502027  0.44664955  0.83662914    -0.08600
C2332       C  0.66641199  0.45707116  0.81282278    -0.06000
C2333       C  0.69705974  0.49870477  0.80688596    -0.00100
C2334       C  0.70213257  0.53190853  0.82369162    -0.08500
C2335       C  0.73075761  0.57816591  0.81750723     0.61900
H2336       H  0.68632995  0.54627604  0.86164552     0.12500
H2337       H  0.66214939  0.43176338  0.79988453     0.12600
C2338       C  0.61419013  0.40068315  0.84262731     0.62100
F2339       F  0.71222552  0.60124676  0.82485027    -0.23100
F2340       F  0.73896959  0.58479441  0.79084353    -0.20400
F2341       F  0.76782905  0.59290537  0.83144637    -0.20100
F2342       F  0.57593486  0.39640860  0.84779773    -0.20100
F2343       F  0.62746139  0.38731530  0.86426508    -0.20500
F2344       F  0.60912004  0.37432033  0.82169045    -0.23100
C2345       C  0.00221132  0.84820673  0.64225224    -0.06000
C2346       C  0.97679947  0.86245106  0.65335558     0.00000
C2347       C  0.99635944  0.90503462  0.66149560    -0.08600
C2348       C  0.03564838  0.93417140  0.65096424    -0.06000
C2349       C  0.05861204  0.92057970  0.63617364    -0.00100
C2350       C  0.04374946  0.87662634  0.63462955    -0.08500
C2351       C  0.07128142  0.86006686  0.62465451     0.61900
H2352       H  0.98816018  0.81496447  0.63773165     0.12500
H2353       H  0.04926100  0.96759142  0.65493263     0.12600
C2354       C  0.97612526  0.91870145  0.68203529     0.62100
F2355       F  0.05048727  0.81641596  0.62412239    -0.23100
F2356       F  0.10559987  0.87357406  0.64123410    -0.20400
F2357       F  0.08469325  0.87482835  0.59946905    -0.20100
F2358       F  0.93588509  0.90768571  0.67472305    -0.20100
F2359       F  0.99853388  0.96186889  0.68619495    -0.20500
F2360       F  0.97473390  0.89882296  0.70555900    -0.23100
C2361       C  0.84190873  0.69085682  0.69229132    -0.06000
C2362       C  0.82544876  0.67760604  0.66664080     0.00000
C2363       C  0.80518228  0.63401595  0.66034030    -0.08600
C2364       C  0.80539390  0.60588543  0.67922051    -0.06000
C2365       C  0.82320725  0.61942139  0.70442489    -0.00100
C2366       C  0.84060559  0.66232224  0.71150960    -0.08500
C2367       C  0.85840963  0.67796439  0.73894929     0.61900
H2368       H  0.85613080  0.72403774  0.69715617     0.12500
H2369       H  0.79157641  0.57272046  0.67438395     0.12600
C2370       C  0.78223099  0.61678255  0.63427725     0.62100
F2371       F  0.87610542  0.72128487  0.74119795    -0.23100
F2372       F  0.88889059  0.66779156  0.74475337    -0.20400
F2373       F  0.82695846  0.65934563  0.75726046    -0.20100
F2374       F  0.81059708  0.62843340  0.61409804    -0.20100
F2375       F  0.75559565  0.63231319  0.62933211    -0.20500
F2376       F  0.75840398  0.57315787  0.63445908    -0.23100
C2377       C  0.84305572  0.93814887  0.64778370    -0.06000
C2378       C  0.87484351  0.93280110  0.63691422     0.00000
C2379       C  0.91643075  0.96722752  0.63773306    -0.08600
C2380       C  0.92486972  0.00366918  0.65178871    -0.06000
C2381       C  0.89284905  0.01217028  0.65713630    -0.00100
C2382       C  0.85115451  0.97816028  0.65646030    -0.08500
C2383       C  0.81467727  0.98339905  0.66408294     0.61900
H2384       H  0.81136754  0.91176078  0.64783885     0.12500
H2385       H  0.95665420  0.02942742  0.65334572     0.12600
C2386       C  0.95088825  0.96824306  0.62120756     0.62100
F2387       F  0.79274747  0.95527461  0.68398027    -0.23100
F2388       F  0.78835626  0.97489557  0.64255017    -0.20400
F2389       F  0.82745208  0.02377400  0.67302836    -0.20100
F2390       F  0.94065513  0.96732316  0.59480352    -0.20100
F2391       F  0.95578551  0.93419456  0.62653849    -0.20500
F2392       F  0.98899656  0.00434889  0.62566285    -0.23100
C2393       C  0.90132445  0.73980453  0.52061816    -0.06000
C2394       C  0.92300147  0.76191615  0.54335160     0.00000
C2395       C  0.96712345  0.78449159  0.54348662    -0.08600
C2396       C  0.98790320  0.78904129  0.51972568    -0.06000
C2397       C  0.96577572  0.77165479  0.49615747    -0.00100
C2398       C  0.92188238  0.74520896  0.49666620    -0.08500
C2399       C  0.89469901  0.72469945  0.47250628     0.61900
H2400       H  0.86749247  0.72217098  0.52070515     0.12500
H2401       H  0.02155102  0.80909889  0.51920841     0.12600
C2402       C  0.99318018  0.80594251  0.56781785     0.62100
F2403       F  0.87246187  0.68145468  0.47599864    -0.23100
F2404       F  0.91697620  0.73306032  0.44950275    -0.20400
F2405       F  0.86684734  0.73915370  0.46966800    -0.20100
F2406       F  0.96996035  0.79265243  0.59054927    -0.20100
F2407       F  0.01055522  0.84915573  0.56544177    -0.20500
F2408       F  0.02483541  0.79649262  0.57024915    -0.23100
C2409       C  0.79362904  0.79031876  0.50732994    -0.06000
C2410       C  0.78899538  0.80345843  0.53223266     0.00000
C2411       C  0.77170695  0.83003920  0.53478943    -0.08600
C2412       C  0.76342696  0.84603351  0.51181632    -0.06000
C2413       C  0.77411108  0.83795099  0.48701466    -0.00100
C2414       C  0.78717148  0.80792812  0.48441965    -0.08500
C2415       C  0.79542621  0.79551196  0.45780682     0.61900
H2416       H  0.80655126  0.76959721  0.50603173     0.12500
H2417       H  0.75276741  0.86862050  0.51327230     0.12600
C2418       C  0.76387416  0.84306797  0.56152907     0.62100
F2419       F  0.80250423  0.76190714  0.45977608    -0.23100
F2420       F  0.83008098  0.82915137  0.44678275    -0.20400
F2421       F  0.76115465  0.78348903  0.44150365    -0.20100
F2422       F  0.80112524  0.86764818  0.57485579    -0.20100
F2423       F  0.73914149  0.80759538  0.57621368    -0.20500
F2424       F  0.74359007  0.86604854  0.55925309    -0.23100
C2425       C  0.28942026  0.48967987  0.54482734    -0.06000
C2426       C  0.27185271  0.51363370  0.53571597     0.00000
C2427       C  0.29597949  0.54809157  0.51857452    -0.08600
C2428       C  0.33956862  0.56465814  0.51771982    -0.06000
C2429       C  0.35811984  0.54458812  0.53100118    -0.00100
C2430       C  0.33179440  0.50319264  0.54040836    -0.08500
C2431       C  0.34918944  0.47412783  0.54534048     0.61900
H2432       H  0.27018418  0.46099906  0.55575155     0.12500
H2433       H  0.35949349  0.59550146  0.50924681     0.12600
C2434       C  0.27681064  0.56943529  0.50300468     0.62100
F2435       F  0.31845947  0.43461874  0.55345577    -0.23100
F2436       F  0.38059443  0.49072225  0.56422137    -0.20400
F2437       F  0.36553657  0.46935233  0.52211309    -0.20100
F2438       F  0.26591601  0.59140108  0.52001621    -0.20100
F2439       F  0.24192082  0.53967653  0.48931923    -0.20500
F2440       F  0.30429666  0.59718442  0.48466209    -0.23100
C2441       C  0.45335642  0.78566579  0.55051346    -0.06000
C2442       C  0.41114417  0.76675445  0.54264023     0.00000
C2443       C  0.39011216  0.72387465  0.53530835    -0.08600
C2444       C  0.40826622  0.69916448  0.54118300    -0.06000
C2445       C  0.44852566  0.71675530  0.55209822    -0.00100
C2446       C  0.47286285  0.76116178  0.55484803    -0.08500
C2447       C  0.51820716  0.78187008  0.56334945     0.61900
H2448       H  0.46978901  0.81896070  0.55533620     0.12500
H2449       H  0.39012356  0.66531355  0.53810538     0.12600
C2450       C  0.34647341  0.70267420  0.52397966     0.62100
F2451       F  0.53573289  0.82503792  0.56648579    -0.23100
F2452       F  0.54041094  0.77473206  0.54436878    -0.20400
F2453       F  0.52184849  0.76498894  0.58699490    -0.20100
F2454       F  0.33895749  0.73148614  0.51091851    -0.20100
F2455       F  0.31797669  0.68378355  0.54397396    -0.20500
F2456       F  0.34165377  0.67241385  0.50595360    -0.23100
C2457       C  0.63514414  0.71713015  0.61126007    -0.06000
C2458       C  0.62432745  0.69532478  0.58691170     0.00000
C2459       C  0.65620040  0.69515403  0.57211654    -0.08600
C2460       C  0.69681135  0.71361330  0.58307778    -0.06000
C2461       C  0.70724468  0.73258793  0.60839376    -0.00100
C2462       C  0.67611238  0.73596726  0.62225297    -0.08500
C2463       C  0.68541936  0.75713649  0.64903017     0.61900
H2464       H  0.61048858  0.71741937  0.62226170     0.12500
H2465       H  0.72067117  0.71182982  0.57209829     0.12600
C2466       C  0.64671465  0.67334015  0.54547456     0.62100
F2467       F  0.65039763  0.75513421  0.65987368    -0.23100
F2468       F  0.71552541  0.79919692  0.64660295    -0.20400
F2469       F  0.69970934  0.73751201  0.66614789    -0.20100
F2470       F  0.63006433  0.69105736  0.52864610    -0.20100
F2471       F  0.61830354  0.63086989  0.54834370    -0.20500
F2472       F  0.68211053  0.67718551  0.53394501    -0.23100
C2473       C  0.48152699  0.51144711  0.50416014    -0.06000
C2474       C  0.50516392  0.51951948  0.52773356     0.00000
C2475       C  0.52565569  0.49612951  0.53258193    -0.08600
C2476       C  0.52096116  0.46536493  0.51400575    -0.06000
C2477       C  0.49652697  0.45662667  0.49076785    -0.00100
C2478       C  0.47680341  0.48062825  0.48561050    -0.08500
C2479       C  0.44996614  0.47332811  0.46110194     0.61900
H2480       H  0.46587489  0.52924102  0.50045540     0.12500
H2481       H  0.53651207  0.44745562  0.51767415     0.12600
C2482       C  0.55284205  0.50354503  0.55693204     0.62100
F2483       F  0.43063624  0.49733185  0.46128731    -0.23100
F2484       F  0.41915195  0.43133571  0.45955195    -0.20400
F2485       F  0.47447449  0.48424610  0.43889712    -0.20100
F2486       F  0.52848039  0.49117328  0.57921907    -0.20100
F2487       F  0.58264295  0.54579844  0.55891072    -0.20500
F2488       F  0.57348106  0.48083172  0.55607692    -0.23100
C2489       C  0.42366147  0.50380414  0.66978987    -0.06000
C2490       C  0.40096967  0.49593817  0.64613266     0.00000
C2491       C  0.35721403  0.46929859  0.64616123    -0.08600
C2492       C  0.33716931  0.45414962  0.67034985    -0.06000
C2493       C  0.35936467  0.46686808  0.69431088    -0.00100
C2494       C  0.40363693  0.49069147  0.69413983    -0.08500
C2495       C  0.43148501  0.50449608  0.71861163     0.61900
H2496       H  0.45726170  0.52439630  0.66956212     0.12500
H2497       H  0.30348887  0.43566272  0.67082643     0.12600
C2498       C  0.33190965  0.45770473  0.62078016     0.62100
F2499       F  0.45811558  0.48834768  0.71749634    -0.23100
F2500       F  0.40979887  0.49116810  0.74189163    -0.20400
F2501       F  0.45515748  0.54806175  0.71914876    -0.20100
F2502       F  0.34579259  0.43741143  0.60441579    -0.20100
F2503       F  0.33640059  0.49350594  0.60849574    -0.20500
F2504       F  0.28982357  0.43085458  0.62507667    -0.23100
C2505       C  0.45272607  0.64582219  0.68228766    -0.06000
C2506       C  0.48865099  0.64635905  0.67348947     0.00000
C2507       C  0.52281235  0.65900864  0.69113549    -0.08600
C2508       C  0.52300238  0.67907888  0.71487766    -0.06000
C2509       C  0.48859204  0.68301217  0.72225351    -0.00100
C2510       C  0.45138700  0.66271279  0.70669341    -0.08500
C2511       C  0.41089330  0.66068527  0.71455428     0.61900
H2512       H  0.42565040  0.63291000  0.66930321     0.12500
H2513       H  0.55043797  0.69284020  0.72755967     0.12600
C2514       C  0.55842807  0.65139040  0.68508702     0.62100
F2515       F  0.37870162  0.63740402  0.69681811    -0.23100
F2516       F  0.41635223  0.70082119  0.71548132    -0.20400
F2517       F  0.39847302  0.64158383  0.73892105    -0.20100
F2518       F  0.57651747  0.67020861  0.66151800    -0.20100
F2519       F  0.54328298  0.60841968  0.68332905    -0.20500
F2520       F  0.58901308  0.66745527  0.70459940    -0.23100
loop_ 
_geom_bond_atom_site_label_1 
_geom_bond_atom_site_label_2 
_geom_bond_distance 
_geom_bond_site_symmetry_2 
_ccdc_geom_bond_type 
Fe1          O17   2.041       .  S
Fe1           O7   2.066       .  S
Fe1          O14   2.059       .  S
Fe1           O6   2.020       .  S
Fe1          O12   1.938       .  S
Fe2           O5   2.048       .  S
Fe2           O9   2.109       .  S
Fe2          O13   2.063       .  S
Fe2          O18   2.101       .  S
Fe2          O12   1.964       .  S
Fe3          O21   2.139       .  S
Fe3           O8   2.052       .  S
Fe3          O15   2.080       .  S
Fe3           O4   2.149       .  S
Fe3          O12   1.962       .  S
O4           C11   1.291       .  A
O5           C19   1.268       .  A
O6           C11   1.270       .  A
O7           C10   1.264       .  A
O8           C20   1.265       .  A
O9           C22   1.279       .  A
C10          O15   1.264       .  A
C10        C2445   1.489       .  S
C11        C2429   1.483       .  S
O13          C16   1.264       .  A
O14          C16   1.263       .  A
C16        C2490   1.469       .  S
O17          C22   1.275       .  A
O18          C20   1.274       .  A
C19          O21   1.288       .  A
C19        C2458   1.498       .  S
C20        C2474   1.506       .  S
C22        C2506   1.482       .  S
Fe23         O39   2.041       .  S
Fe23         O29   2.064       .  S
Fe23         O36   2.050       .  S
Fe23         O28   2.037       .  S
Fe23         O34   1.949       .  S
Fe24         O27   2.050       .  S
Fe24         O31   2.080       .  S
Fe24         O35   2.054       .  S
Fe24         O40   2.066       .  S
Fe24         O34   1.972       .  S
Fe25         O43   2.141       .  S
Fe25         O30   2.073       .  S
Fe25         O37   2.056       .  S
Fe25         O26   2.151       .  S
Fe25         O34   1.950       .  S
O26          C33   1.297       .  A
O27          C41   1.262       .  A
O28          C33   1.274       .  A
O29          C32   1.261       .  A
O30          C42   1.269       .  A
O31          C44   1.277       .  A
C32          O37   1.258       .  A
C32        C2378   1.486       .  S
C33        C2346   1.488       .  S
O35          C38   1.260       .  A
O36          C38   1.261       .  A
C38        C2394   1.473       .  S
O39          C44   1.272       .  A
O40          C42   1.270       .  A
C41          O43   1.283       .  A
C41        C2461   1.512       .  S
C42        C2362   1.487       .  S
C44        C2410   1.458       .  S
Fe45         O61   2.049       .  S
Fe45         O51   2.056       .  S
Fe45         O58   2.058       .  S
Fe45         O50   2.067       .  S
Fe45         O56   1.922       .  S
Fe46         O49   2.070       .  S
Fe46         O53   2.071       .  S
Fe46         O57   2.052       .  S
Fe46         O62   2.079       .  S
Fe46         O56   1.942       .  S
Fe47         O65   2.073       .  S
Fe47         O52   2.119       .  S
Fe47         O59   2.111       .  S
Fe47         O48   2.111       .  S
Fe47         O56   1.931       .  S
O48          C55   1.273       .  A
O49          C63   1.268       .  A
O50          C55   1.268       .  A
O51          C54   1.267       .  A
O52          C64   1.287       .  A
O53          C66   1.268       .  A
C54          O59   1.279       .  A
C54        C2266   1.481       .  S
C55        C2282   1.496       .  S
O57          C60   1.273       .  A
O58          C60   1.270       .  A
C60        C2314   1.469       .  S
O61          C66   1.266       .  A
O62          C64   1.276       .  A
C63          O65   1.268       .  A
C63        C2365   1.479       .  S
C64        C2298   1.516       .  S
C66        C2333   1.483       .  S
Fe67         O83   2.087       .  S
Fe67         O73   2.014       .  S
Fe67         O80   2.028       .  S
Fe67         O72   2.090       .  S
Fe67         O78   1.942       .  S
Fe68         O71   2.095       .  S
Fe68         O75   2.064       .  S
Fe68         O79   2.105       .  S
Fe68         O84   2.042       .  S
Fe68         O78   1.964       .  S
Fe69         O87   2.028       .  S
Fe69         O74   2.149       .  S
Fe69         O81   2.160       .  S
Fe69         O70   2.067       .  S
Fe69         O78   1.958       .  S
O70          C77   1.262       .  A
O71          C85   1.274       .  A
O72          C77   1.269       .  A
O73          C76   1.268       .  A
O74          C86   1.289       .  A
O75          C88   1.264       .  A
C76          O81   1.293       .  A
C76        C2186   1.500       .  S
C77        C2218   1.491       .  S
O79          C82   1.278       .  A
O80          C82   1.269       .  A
C82        C2250   1.468       .  S
O83          C88   1.271       .  A
O84          C86   1.267       .  A
C85          O87   1.258       .  A
C85        C2202   1.488       .  S
C86        C2301   1.499       .  S
C88        C2234   1.479       .  S
Fe89        O105   2.055       .  S
Fe89         O95   2.068   1_565  S
Fe89        O102   2.064       .  S
Fe89         O94   2.061       .  S
Fe89        O100   1.924       .  S
Fe90         O93   2.053       .  S
Fe90         O97   2.086       .  S
Fe90        O101   2.044       .  S
Fe90        O106   2.074       .  S
Fe90        O100   1.944       .  S
Fe91        O109   2.136   1_565  S
Fe91         O96   2.079       .  S
Fe91        O103   2.073   1_565  S
Fe91         O92   2.111       .  S
Fe91        O100   1.942       .  S
O92          C99   1.285       .  A
O93         C107   1.263       .  A
O94          C99   1.275       .  A
O95          C98   1.266       .  A
O96         C108   1.267       .  A
O97         C110   1.280       .  A
C98         O103   1.265       .  A
C98        C2122   1.489       .  S
C99        C2109   1.483       .  S
O101        C104   1.259       .  A
O102        C104   1.269       .  A
C104       C2170   1.485       .  S
O105        C110   1.274       .  A
O106        C108   1.274       .  A
C107        O109   1.282   1_565  A
C107       C2138   1.513   1_565  S
C108       C2205   1.501       .  S
C110       C2157   1.467   1_556  S
Fe111       O127   2.039       .  S
Fe111       O117   2.059       .  S
Fe111       O124   2.049       .  S
Fe111       O116   2.021       .  S
Fe111       O122   1.942       .  S
Fe112       O115   2.038       .  S
Fe112       O119   2.101       .  S
Fe112       O123   2.054       .  S
Fe112       O128   2.089       .  S
Fe112       O122   1.964       .  S
Fe113       O131   2.136       .  S
Fe113       O118   2.041       .  S
Fe113       O125   2.076       .  S
Fe113       O114   2.142       .  S
Fe113       O122   1.961       .  S
O114        C121   1.289       .  A
O115        C129   1.266       .  A
O116        C121   1.270       .  A
O117        C120   1.261       .  A
O118        C130   1.263       .  A
O119        C132   1.279       .  A
C120        O125   1.265       .  A
C120       C2058   1.500       .  S
C121       C2026   1.484       .  S
O123        C126   1.260       .  A
O124        C126   1.261       .  A
C126       C2077   1.460       .  S
O127        C132   1.271       .  A
O128        C130   1.270       .  A
C129        O131   1.287       .  A
C129       C2141   1.489       .  S
C130       C2042   1.494   1_545  S
C132       C2090   1.470       .  S
Fe133       O149   2.061       .  S
Fe133       O139   2.068       .  S
Fe133       O146   2.058       .  S
Fe133       O138   2.070       .  S
Fe133       O144   1.934       .  S
Fe134       O137   2.074       .  S
Fe134       O141   2.063       .  S
Fe134       O145   2.093       .  S
Fe134       O150   2.063       .  S
Fe134       O144   1.955       .  S
Fe135       O153   2.062       .  S
Fe135       O140   2.120       .  S
Fe135       O147   2.113       .  S
Fe135       O136   2.060       .  S
Fe135       O144   1.945       .  S
O136        C143   1.257       .  A
O137        C151   1.267       .  A
O138        C143   1.260       .  A
O139        C142   1.284       .  A
O140        C152   1.287       .  A
O141        C154   1.262       .  A
C142        O147   1.292       .  A
C142       C1933   1.484       .  S
C143       C1962   1.493       .  S
O145        C148   1.278       .  A
O146        C148   1.275       .  A
C148       C1994   1.475       .  S
O149        C154   1.264       .  A
O150        C152   1.271       .  A
C151        O153   1.261       .  A
C151       C1949   1.479       .  S
C152       C1978   1.499       .  S
C154       C2010   1.474       .  S
Fe155       O171   2.086       .  S
Fe155       O161   2.027       .  S
Fe155       O168   2.038       .  S
Fe155       O160   2.098       .  S
Fe155       O166   1.936       .  S
Fe156       O159   2.100       .  S
Fe156       O163   2.045       .  S
Fe156       O167   2.120       .  S
Fe156       O172   2.021       .  S
Fe156       O166   1.949       .  S
Fe157       O175   2.053       .  S
Fe157       O162   2.122       .  S
Fe157       O169   2.145       .  S
Fe157       O158   2.064       .  S
Fe157       O166   1.946       .  S
O158        C165   1.258       .  A
O159        C173   1.274       .  A
O160        C165   1.269       .  A
O161        C164   1.274       .  A
O162        C174   1.283       .  A
O163        C176   1.255       .  A
C164        O169   1.292       .  A
C164       C1866   1.479       .  S
C165       C1882   1.492       .  S
O167        C170   1.285       .  A
O168        C170   1.277       .  A
C170       C1914   1.480       .  S
O171        C176   1.267       .  A
O172        C174   1.262       .  A
C173        O175   1.266       .  A
C173       C2477   1.504       .  S
C174       C1981   1.485       .  S
C176       C1901   1.470       .  S
Fe177       O193   2.057       .  S
Fe177       O183   2.055       .  S
Fe177       O190   2.038       .  S
Fe177       O182   2.068       .  S
Fe177       O188   1.912       .  S
Fe178       O181   2.051       .  S
Fe178       O185   2.079       .  S
Fe178       O189   2.076       .  S
Fe178       O194   2.076       .  S
Fe178       O188   1.949       .  S
Fe179       O197   2.139       .  S
Fe179       O184   2.072       .  S
Fe179       O191   2.090       .  S
Fe179       O180   2.110       .  S
Fe179       O188   1.942       .  S
O180        C187   1.286       .  A
O181        C195   1.263       .  A
O182        C187   1.275       .  A
O183        C186   1.264       .  A
O184        C196   1.269       .  A
O185        C198   1.276       .  A
C186        O191   1.264       .  A
C186       C1802   1.493       .  S
C187       C1770   1.484       .  S
O189        C192   1.267       .  A
O190        C192   1.266       .  A
C192       C1834   1.482       .  S
O193        C198   1.274       .  A
O194        C196   1.274       .  A
C195        O197   1.285       .  A
C195       C1818   1.516       .  S
C196       C1789   1.470       .  S
C198       C1850   1.466       .  S
Fe199       O215   2.035       .  S
Fe199       O205   2.068       .  S
Fe199       O212   2.059       .  S
Fe199       O204   2.017       .  S
Fe199       O210   1.940       .  S
Fe200       O203   2.037       .  S
Fe200       O207   2.086       .  S
Fe200       O211   2.062       .  S
Fe200       O216   2.083       .  S
Fe200       O210   1.953       .  S
Fe201       O219   2.137       .  S
Fe201       O206   2.043       .  S
Fe201       O213   2.066       .  S
Fe201       O202   2.158       .  S
Fe201       O210   1.944       .  S
O202        C209   1.299       .  A
O203        C217   1.266       .  A
O204        C209   1.273       .  A
O205        C208   1.261       .  A
O206        C218   1.259       .  A
O207        C220   1.280       .  A
C208        O213   1.257       .  A
C208       C1725   1.484       .  S
C209       C1706   1.482       .  S
O211        C214   1.262       .  A
O212        C214   1.263       .  A
C214       C1738   1.473       .  S
O215        C220   1.275       .  A
O216        C218   1.271       .  A
C217        O219   1.288       .  A
C217       C1821   1.490       .  S
C218       C1946   1.488       .  S
C220       C1757   1.469       .  S
Fe221       O237   2.062       .  S
Fe221       O227   2.021       .  S
Fe221       O234   2.041   1_545  S
Fe221       O226   2.073   1_545  S
Fe221       O232   1.938       .  S
Fe222       O225   2.078       .  S
Fe222       O229   2.048       .  S
Fe222       O233   2.098       .  S
Fe222       O238   2.013   1_545  S
Fe222       O232   1.969       .  S
Fe223       O241   2.042   1_565  S
Fe223       O228   2.118       .  S
Fe223       O235   2.130   1_565  S
Fe223       O224   2.059       .  S
Fe223       O232   1.960   1_565  S
O224        C231   1.260       .  A
O225        C239   1.267       .  A
O226        C231   1.265       .  A
O227        C230   1.269       .  A
O228        C240   1.284       .  A
O229        C242   1.259       .  A
C230        O235   1.287       .  A
C230       C1626   1.474       .  S
C231       C1642   1.480       .  S
O233        C236   1.275   1_545  A
O234        C236   1.269       .  A
C236       C1693   1.465       .  S
O237        C242   1.268       .  A
O238        C240   1.264       .  A
C239        O241   1.262       .  A
C239       C1786   1.479       .  S
C240       C1661   1.484       .  S
C242       C1674   1.471       .  S
Fe243       O259   2.062       .  S
Fe243       O249   2.008       .  S
Fe243       O256   2.034       .  S
Fe243       O248   2.091       .  S
Fe243       O254   1.921       .  S
Fe244       O247   2.082       .  S
Fe244       O251   2.063       .  S
Fe244       O255   2.119       .  S
Fe244       O260   2.019       .  S
Fe244       O254   1.939       .  S
Fe245       O263   2.048       .  S
Fe245       O250   2.109       .  S
Fe245       O257   2.143       .  S
Fe245       O246   2.054       .  S
Fe245       O254   1.933       .  S
O246        C253   1.254       .  A
O247        C261   1.270       .  A
O248        C253   1.265       .  A
O249        C252   1.269       .  A
O250        C262   1.283       .  A
O251        C264   1.260       .  A
C252        O257   1.293       .  A
C252       C1565   1.462       .  S
C253       C1578   1.482       .  S
O255        C258   1.284       .  A
O256        C258   1.276       .  A
C258       C1597   1.473       .  S
O259        C264   1.264       .  A
O260        C262   1.267       .  A
C261        O263   1.264       .  A
C261       C2045   1.493       .  S
C262       C1658   1.485       .  S
C264       C1610   1.469       .  S
Fe265       O281   2.073       .  S
Fe265       O271   2.012       .  S
Fe265       O278   2.034       .  S
Fe265       O270   2.095       .  S
Fe265       O276   1.940       .  S
Fe266       O269   2.112       .  S
Fe266       O273   2.050       .  S
Fe266       O277   2.124       .  S
Fe266       O282   2.018       .  S
Fe266       O276   1.963       .  S
Fe267       O285   2.040       .  S
Fe267       O272   2.148       .  S
Fe267       O279   2.164       .  S
Fe267       O268   2.069       .  S
Fe267       O276   1.946       .  S
O268        C275   1.259       .  A
O269        C283   1.274       .  A
O270        C275   1.268       .  A
O271        C274   1.267       .  A
O272        C284   1.291       .  A
O273        C286   1.260       .  A
C274        O279   1.297       .  A
C274       C1885   1.487       .  S
C275       C1517   1.493       .  S
O277        C280   1.283       .  A
O278        C280   1.268       .  A
C280       C1837   1.478       .  S
O281        C286   1.266       .  A
O282        C284   1.263       .  A
C283        O285   1.262       .  A
C283       C1498   1.514       .  S
C284       C1530   1.488       .  S
C286       C1549   1.468       .  S
Fe287       O303   2.055       .  S
Fe287       O293   2.072       .  S
Fe287       O300   2.075       .  S
Fe287       O292   2.063   1_565  S
Fe287       O298   1.928       .  S
Fe288       O291   2.070       .  S
Fe288       O295   2.048       .  S
Fe288       O299   2.075       .  S
Fe288       O304   2.056       .  S
Fe288       O298   1.956       .  S
Fe289       O307   2.085       .  S
Fe289       O294   2.132       .  S
Fe289       O301   2.108       .  S
Fe289       O290   2.076   1_565  S
Fe289       O298   1.948       .  S
O290        C297   1.263       .  A
O291        C305   1.269       .  A
O292        C297   1.263       .  A
O293        C296   1.278       .  A
O294        C306   1.281       .  A
O295        C308   1.262       .  A
C296        O301   1.287       .  A
C296       C1450   1.483       .  S
C297       C1930   1.490       .  S
O299        C302   1.275       .  A
O300        C302   1.277       .  A
C302       C1482   1.469   1_565  S
O303        C308   1.264       .  A
O304        C306   1.263       .  A
C305        O307   1.273       .  A
C305       C1469   1.501       .  S
C306       C1533   1.512   1_565  S
C308       C2413   1.466       .  S
Fe309       O325   2.053       .  S
Fe309       O315   2.021       .  S
Fe309       O322   2.053       .  S
Fe309       O314   2.065       .  S
Fe309       O320   1.911       .  S
Fe310       O313   2.052       .  S
Fe310       O317   2.045       .  S
Fe310       O321   2.094       .  S
Fe310       O326   2.032       .  S
Fe310       O320   1.953       .  S
Fe311       O329   2.089       .  S
Fe311       O316   2.146       .  S
Fe311       O323   2.132       .  S
Fe311       O312   2.064       .  S
Fe311       O320   1.946       .  S
O312        C319   1.266       .  A
O313        C327   1.275       .  A
O314        C319   1.268       .  A
O315        C318   1.266       .  A
O316        C328   1.277       .  A
O317        C330   1.258       .  A
C318        O323   1.287       .  A
C318       C1386   1.484       .  S
C319       C1562   1.484       .  S
O321        C324   1.282       .  A
O322        C324   1.277       .  A
C324       C1434   1.496       .  S
O325        C330   1.260       .  A
O326        C328   1.252       .  A
C327        O329   1.278       .  A
C327       C1418   1.478       .  S
C328       C1405   1.509       .  S
C330       C1754   1.464       .  S
Fe331       O347   2.050       .  S
Fe331       O337   2.085       .  S
Fe331       O344   2.067   1_655  S
Fe331       O336   2.078   1_655  S
Fe331       O342   1.930       .  S
Fe332       O335   2.078       .  S
Fe332       O339   2.062       .  S
Fe332       O343   2.067       .  S
Fe332       O348   2.075       .  S
Fe332       O342   1.939       .  S
Fe333       O351   2.045       .  S
Fe333       O338   2.100   1_655  S
Fe333       O345   2.103       .  S
Fe333       O334   2.068   1_655  S
Fe333       O342   1.940       .  S
O334        C341   1.258       .  A
O335        C349   1.261       .  A
O336        C341   1.263       .  A
O337        C340   1.283       .  A
O338        C350   1.290       .  A
O339        C352   1.269       .  A
C340        O345   1.287       .  A
C340       C1645   1.486       .  S
C341       C1357   1.493       .  S
O343        C346   1.270   1_655  A
O344        C346   1.274       .  A
C346       C2173   1.471       .  S
O347        C352   1.263       .  A
O348        C350   1.281   1_655  A
C349        O351   1.256       .  A
C349       C1338   1.490       .  S
C350       C1402   1.481       .  S
C352       C1370   1.493       .  S
Fe353       O369   2.044       .  S
Fe353       O359   2.078       .  S
Fe353       O366   2.054       .  S
Fe353       O358   2.053       .  S
Fe353       O364   1.930       .  S
Fe354       O357   2.044       .  S
Fe354       O361   2.093       .  S
Fe354       O365   2.035       .  S
Fe354       O370   2.078       .  S
Fe354       O364   1.963       .  S
Fe355       O373   2.135       .  S
Fe355       O360   2.069       .  S
Fe355       O367   2.047       .  S
Fe355       O356   2.132       .  S
Fe355       O364   1.946       .  S
O356        C363   1.295       .  A
O357        C371   1.260       .  A
O358        C363   1.280       .  A
O359        C362   1.262       .  A
O360        C372   1.267       .  A
O361        C374   1.278       .  A
C362        O367   1.254       .  A
C362       C1293   1.482       .  S
C363       C1805   1.488       .  S
O365        C368   1.256       .  A
O366        C368   1.264       .  A
C368       C1325   1.456       .  S
O369        C374   1.276       .  A
O370        C372   1.270       .  A
C371        O373   1.281       .  A
C371       C1306   1.509       .  S
C372       C1341   1.487       .  S
C374       C1898   1.473       .  S
Fe375       O391   2.032       .  S
Fe375       O381   2.136       .  S
Fe375       O388   2.050       .  S
Fe375       O380   2.016       .  S
Fe375       O386   1.899       .  S
Fe376       O379   2.011       .  S
Fe376       O383   2.110       .  S
Fe376       O387   2.060       .  S
Fe376       O392   2.104       .  S
Fe376       O386   1.930       .  S
Fe377       O395   2.150       .  S
Fe377       O382   2.041       .  S
Fe377       O389   2.052       .  S
Fe377       O378   2.193       .  S
Fe377       O386   1.954       .  S
O378        C385   1.289       .  A
O379        C393   1.261       .  A
O380        C385   1.242       .  A
O381        C384   1.276       .  A
O382        C394   1.266       .  A
O383        C396   1.284       .  A
C384        O389   1.261       .  A
C384       C1709   1.490       .  S
C385       C1261   1.490       .  S
O387        C390   1.260       .  A
O388        C390   1.261       .  A
C390       C1594   1.466       .  S
O391        C396   1.274       .  A
O392        C394   1.278       .  A
C393        O395   1.290       .  A
C393       C1309   1.486       .  S
C394       C1466   1.480       .  S
C396       C1274   1.470       .  S
Fe397       O413   2.062   1_455  S
Fe397       O403   2.072   1_455  S
Fe397       O410   2.050       .  S
Fe397       O402   2.080       .  S
Fe397       O408   1.924       .  S
Fe398       O401   2.079       .  S
Fe398       O405   2.084       .  S
Fe398       O409   2.055       .  S
Fe398       O414   2.082       .  S
Fe398       O408   1.933       .  S
Fe399       O417   2.098   1_455  S
Fe399       O404   2.055       .  S
Fe399       O411   2.062   1_455  S
Fe399       O400   2.098       .  S
Fe399       O408   1.937       .  S
O400        C407   1.288       .  A
O401        C415   1.283   1_455  A
O402        C407   1.281       .  A
O403        C406   1.261       .  A
O404        C416   1.257       .  A
O405        C418   1.273   1_455  A
C406        O411   1.257       .  A
C406       C1210   1.490       .  S
C407       C2125   1.480       .  S
O409        C412   1.264       .  A
O410        C412   1.269       .  A
C412       C1242   1.486       .  S
O413        C418   1.273       .  A
O414        C416   1.261       .  A
C415        O417   1.290       .  A
C415       C1229   1.483       .  S
C416       C1194   1.505       .  S
C418       C1677   1.473   1_556  S
Fe419       O435   2.070       .  S
Fe419       O425   2.094       .  S
Fe419       O432   2.055       .  S
Fe419       O424   2.075       .  S
Fe419       O430   1.924       .  S
Fe420       O423   2.047       .  S
Fe420       O427   2.064       .  S
Fe420       O431   2.028       .  S
Fe420       O436   2.060       .  S
Fe420       O430   1.944       .  S
Fe421       O439   2.138       .  S
Fe421       O426   2.058       .  S
Fe421       O433   2.072       .  S
Fe421       O422   2.122       .  S
Fe421       O430   1.927       .  S
O422        C429   1.290       .  A
O423        C437   1.266       .  A
O424        C429   1.279       .  A
O425        C428   1.269       .  A
O426        C438   1.263       .  A
O427        C440   1.273       .  A
C428        O433   1.261       .  A
C428       C2029   1.500       .  S
C429       C1162   1.493       .  S
O431        C434   1.257       .  A
O432        C434   1.269       .  A
C434       C2317   1.481       .  S
O435        C440   1.277       .  A
O436        C438   1.263       .  A
C437        O439   1.289       .  A
C437       C1226   1.514       .  S
C438       C1421   1.466       .  S
C440       C1181   1.462       .  S
Fe441       O457   2.052       .  S
Fe441       O447   2.038       .  S
Fe441       O454   2.037       .  S
Fe441       O446   2.065       .  S
Fe441       O452   1.948       .  S
Fe442       O445   2.075       .  S
Fe442       O449   2.040       .  S
Fe442       O453   2.098       .  S
Fe442       O458   2.037       .  S
Fe442       O452   1.969       .  S
Fe443       O461   2.055       .  S
Fe443       O448   2.121       .  S
Fe443       O455   2.130       .  S
Fe443       O444   2.050       .  S
Fe443       O452   1.951       .  S
O444        C451   1.256       .  A
O445        C459   1.265       .  A
O446        C451   1.261       .  A
O447        C450   1.274       .  A
O448        C460   1.287       .  A
O449        C462   1.258       .  A
C450        O455   1.293       .  A
C450       C2221   1.477       .  S
C451       C1117   1.483       .  S
O453        C456   1.279       .  A
O454        C456   1.267       .  A
C456       C2493   1.470       .  S
O457        C462   1.266       .  A
O458        C460   1.266       .  A
C459        O461   1.262       .  A
C459       C1197   1.500       .  S
C460       C1130   1.483       .  S
C462       C1149   1.467       .  S
Fe463       O479   2.062       .  S
Fe463       O469   2.078       .  S
Fe463       O476   2.061       .  S
Fe463       O468   2.073       .  S
Fe463       O474   1.922       .  S
Fe464       O467   2.065       .  S
Fe464       O471   2.051       .  S
Fe464       O475   2.061       .  S
Fe464       O480   2.072       .  S
Fe464       O474   1.935       .  S
Fe465       O483   2.068       .  S
Fe465       O470   2.098       .  S
Fe465       O477   2.092       .  S
Fe465       O466   2.070       .  S
Fe465       O474   1.937       .  S
O466        C473   1.258       .  A
O467        C481   1.260       .  A
O468        C473   1.261       .  A
O469        C472   1.283       .  A
O470        C482   1.289       .  A
O471        C484   1.263       .  A
C472        O477   1.289       .  A
C472       C1066   1.472       .  S
C473       C2269   1.497       .  S
O475        C478   1.271       .  A
O476        C478   1.274       .  A
C478       C1098   1.463       .  S
O479        C484   1.270       .  A
O480        C482   1.278       .  A
C481        O483   1.261       .  A
C481       C1085   1.489       .  S
C482       C1133   1.489       .  S
C484       C2093   1.491       .  S
Fe485       O501   2.020   1_545  S
Fe485       O491   2.150   1_545  S
Fe485       O498   2.089       .  S
Fe485       O490   1.996       .  S
Fe485       O496   1.888       .  S
Fe486       O489   1.998   1_545  S
Fe486       O493   2.124       .  S
Fe486       O497   2.047       .  S
Fe486       O502   2.103       .  S
Fe486       O496   1.928       .  S
Fe487       O505   2.151   1_545  S
Fe487       O492   2.044       .  S
Fe487       O499   2.042   1_545  S
Fe487       O488   2.193       .  S
Fe487       O496   1.937       .  S
O488        C495   1.291       .  A
O489        C503   1.261       .  A
O490        C495   1.241       .  A
O491        C494   1.279       .  A
O492        C504   1.268       .  A
O493        C506   1.283   1_545  A
C494        O499   1.259       .  A
C494       C2349   1.495       .  S
C495       C1018   1.495       .  S
O497        C500   1.259       .  A
O498        C500   1.272       .  A
C500       C1997   1.466       .  S
O501        C506   1.267       .  A
O502        C504   1.277       .  A
C503        O505   1.291       .  A
C503       C1037   1.479       .  S
C504       C1082   1.492       .  S
C506       C1053   1.465       .  S
Fe507       O523   2.073       .  S
Fe507       O513   2.085       .  S
Fe507       O520   2.068       .  S
Fe507       O512   2.070       .  S
Fe507       O518   1.931       .  S
Fe508       O511   2.049       .  S
Fe508       O515   2.089       .  S
Fe508       O519   2.041       .  S
Fe508       O524   2.083       .  S
Fe508       O518   1.953       .  S
Fe509       O527   2.121       .  S
Fe509       O514   2.084       .  S
Fe509       O521   2.068       .  S
Fe509       O510   2.114       .  S
Fe509       O518   1.946       .  S
O510        C517   1.291       .  A
O511        C525   1.264       .  A
O512        C517   1.281       .  A
O513        C516   1.266       .  A
O514        C526   1.269       .  A
O515        C528   1.277       .  A
C516        O521   1.260       .  A
C516        C986   1.499       .  S
C517       C2442   1.483       .  S
O519        C522   1.262       .  A
O520        C522   1.268       .  A
C522       C1005   1.471       .  S
O523        C528   1.276       .  A
O524        C526   1.269       .  A
C525        O527   1.281       .  A
C525       C1034   1.508       .  S
C526       C1501   1.511       .  S
C528       C2237   1.482       .  S
Fe529       O545   2.056       .  S
Fe529       O535   2.075       .  S
Fe529       O542   2.056       .  S
Fe529       O534   2.051       .  S
Fe529       O540   1.924       .  S
Fe530       O533   2.077       .  S
Fe530       O537   2.071       .  S
Fe530       O541   2.055       .  S
Fe530       O546   2.078       .  S
Fe530       O540   1.938       .  S
Fe531       O549   2.080       .  S
Fe531       O536   2.104       .  S
Fe531       O543   2.093       .  S
Fe531       O532   2.112       .  S
Fe531       O540   1.941       .  S
O532        C539   1.269       .  A
O533        C547   1.268       .  A
O534        C539   1.262       .  A
O535        C538   1.274       .  A
O536        C548   1.286       .  A
O537        C550   1.271       .  A
C538        O543   1.280       .  A
C538       C1114   1.476       .  S
C539       C2189   1.494       .  S
O541        C544   1.269       .  A
O542        C544   1.269       .  A
C544       C1002   1.456       .  S
O545        C550   1.267       .  A
O546        C548   1.276       .  A
C547        O549   1.269       .  A
C547        C954   1.495       .  S
C548        C973   1.496       .  S
C550       C2509   1.484       .  S
Fe551       O567   2.052       .  S
Fe551       O557   2.053       .  S
Fe551       O564   2.040       .  S
Fe551       O556   2.059       .  S
Fe551       O562   1.937       .  S
Fe552       O555   2.060       .  S
Fe552       O559   2.039       .  S
Fe552       O563   2.071       .  S
Fe552       O568   2.059       .  S
Fe552       O562   1.959       .  S
Fe553       O571   2.069       .  S
Fe553       O558   2.126       .  S
Fe553       O565   2.128       .  S
Fe553       O554   2.061       .  S
Fe553       O562   1.950       .  S
O554        C561   1.259       .  A
O555        C569   1.264       .  A
O556        C561   1.259       .  A
O557        C560   1.277       .  A
O558        C570   1.286       .  A
O559        C572   1.257       .  A
C560        O565   1.293       .  A
C560       C2285   1.483       .  S
C561       C1069   1.484       .  S
O563        C566   1.276       .  A
O564        C566   1.270       .  A
C566       C2074   1.455       .  S
O567        C572   1.265       .  A
O568        C570   1.267       .  A
C569        O571   1.262       .  A
C569        C941   1.477       .  S
C570        C970   1.494       .  S
C572       C1178   1.471       .  S
Fe573       O589   2.058       .  S
Fe573       O579   2.074       .  S
Fe573       O586   2.050       .  S
Fe573       O578   2.078       .  S
Fe573       O584   1.925       .  S
Fe574       O577   2.069       .  S
Fe574       O581   2.057       .  S
Fe574       O585   2.048       .  S
Fe574       O590   2.055       .  S
Fe574       O584   1.937       .  S
Fe575       O593   2.121       .  S
Fe575       O580   2.061       .  S
Fe575       O587   2.090       .  S
Fe575       O576   2.107       .  S
Fe575       O584   1.936       .  S
O576        C583   1.289       .  A
O577        C591   1.276       .  A
O578        C583   1.281       .  A
O579        C582   1.263       .  A
O580        C592   1.260       .  A
O581        C594   1.270       .  A
C582        O587   1.262       .  A
C582       C2426   1.496       .  S
C583        C989   1.485       .  S
O585        C588   1.266       .  A
O586        C588   1.263       .  A
C588       C2253   1.487       .  S
O589        C594   1.274       .  A
O590        C592   1.259       .  A
C591        O593   1.292       .  A
C591        C922   1.500       .  S
C592        C909   1.469       .  S
C594       C1146   1.456       .  S
Fe595       O611   2.035       .  S
Fe595       O601   2.066       .  S
Fe595       O608   2.039       .  S
Fe595       O600   2.029       .  S
Fe595       O606   1.915       .  S
Fe596       O599   2.023       .  S
Fe596       O603   2.110       .  S
Fe596       O607   2.071       .  S
Fe596       O612   2.094       .  S
Fe596       O606   1.944       .  S
Fe597       O615   2.123       .  S
Fe597       O602   2.044       .  S
Fe597       O609   2.063   1_655  S
Fe597       O598   2.149       .  S
Fe597       O606   1.962       .  S
O598        C605   1.289       .  A
O599        C613   1.261   1_655  A
O600        C605   1.263       .  A
O601        C604   1.265   1_655  A
O602        C614   1.267       .  A
O603        C616   1.284       .  A
C604        O609   1.261       .  A
C604       C1021   1.476       .  S
C605       C2381   1.473       .  S
O607        C610   1.261       .  A
O608        C610   1.256       .  A
C610       C1485   1.471       .  S
O611        C616   1.277       .  A
O612        C614   1.278       .  A
C613        O615   1.280   1_455  A
C613        C925   1.491       .  S
C614        C938   1.472       .  S
C616       C2013   1.488   1_655  S
Fe617       O633   2.039       .  S
Fe617       O623   2.087       .  S
Fe617       O630   2.055       .  S
Fe617       O622   2.012       .  S
Fe617       O628   1.926       .  S
Fe618       O621   2.003       .  S
Fe618       O625   2.113       .  S
Fe618       O629   2.049       .  S
Fe618       O634   2.084       .  S
Fe618       O628   1.944       .  S
Fe619       O637   2.144       .  S
Fe619       O624   2.077       .  S
Fe619       O631   2.075       .  S
Fe619       O620   2.153       .  S
Fe619       O628   1.949       .  S
O620        C627   1.294       .  A
O621        C635   1.261       .  A
O622        C627   1.266       .  A
O623        C626   1.266       .  A
O624        C636   1.267       .  A
O625        C638   1.282       .  A
C626        O631   1.263       .  A
C626       C1165   1.490       .  S
C627       C2061   1.471       .  S
O629        C632   1.258       .  A
O630        C632   1.262       .  A
C632       C1101   1.461       .  S
O633        C638   1.274       .  A
O634        C636   1.274       .  A
C635        O637   1.288       .  A
C635        C874   1.512       .  S
C636        C890   1.515   1_556  S
C638       C2330   1.468       .  S
Fe639       O655   2.037       .  S
Fe639       O645   2.059       .  S
Fe639       O652   2.063       .  S
Fe639       O644   2.026       .  S
Fe639       O650   1.952       .  S
Fe640       O643   2.043       .  S
Fe640       O647   2.095       .  S
Fe640       O651   2.049       .  S
Fe640       O656   2.079       .  S
Fe640       O650   1.964       .  S
Fe641       O659   2.119       .  S
Fe641       O646   2.043       .  S
Fe641       O653   2.073       .  S
Fe641       O642   2.119       .  S
Fe641       O650   1.970       .  S
O642        C649   1.285       .  A
O643        C657   1.272       .  A
O644        C649   1.270       .  A
O645        C648   1.262       .  A
O646        C658   1.257       .  A
O647        C660   1.273       .  A
C648        O653   1.262       .  A
C648       C2106   1.482       .  S
C649       C1213   1.474       .  S
O651        C654   1.261       .  A
O652        C654   1.269       .  A
C654       C1690   1.477       .  S
O655        C660   1.267       .  A
O656        C658   1.265       .  A
C657        O659   1.289       .  A
C657        C877   1.477       .  S
C658        C957   1.480       .  S
C660       C1373   1.471   1_556  S
Fe661       O677   2.061       .  S
Fe661       O667   2.059       .  S
Fe661       O674   2.051       .  S
Fe661       O666   2.071       .  S
Fe661       O672   1.934       .  S
Fe662       O665   2.095       .  S
Fe662       O669   2.054       .  S
Fe662       O673   2.076       .  S
Fe662       O678   2.069       .  S
Fe662       O672   1.946       .  S
Fe663       O681   2.079       .  S
Fe663       O668   2.107       .  S
Fe663       O675   2.103       .  S
Fe663       O664   2.096       .  S
Fe663       O672   1.935       .  S
O664        C671   1.268       .  A
O665        C679   1.270       .  A
O666        C671   1.267       .  A
O667        C670   1.268       .  A
O668        C680   1.288       .  A
O669        C682   1.268       .  A
C670        O675   1.281       .  A
C670       C1581   1.478       .  S
C671       C1389   1.490       .  S
O673        C676   1.271       .  A
O674        C676   1.268       .  A
C676       C1741   1.467       .  S
O677        C682   1.273       .  A
O678        C680   1.276       .  A
C679        O681   1.264       .  A
C679        C893   1.505       .  S
C680        C858   1.490       .  S
C682       C1277   1.483       .  S
Fe683       O699   2.064       .  S
Fe683       O689   2.020       .  S
Fe683       O696   2.044       .  S
Fe683       O688   2.069       .  S
Fe683       O694   1.945       .  S
Fe684       O687   2.079       .  S
Fe684       O691   2.047       .  S
Fe684       O695   2.100       .  S
Fe684       O700   2.030       .  S
Fe684       O694   1.952       .  S
Fe685       O703   2.044       .  S
Fe685       O690   2.135       .  S
Fe685       O697   2.142       .  S
Fe685       O686   2.072       .  S
Fe685       O694   1.959       .  S
O686        C693   1.261       .  A
O687        C701   1.270       .  A
O688        C693   1.262       .  A
O689        C692   1.273       .  A
O690        C702   1.287       .  A
O691        C704   1.258       .  A
C692        O697   1.292       .  A
C692       C1354   1.479       .  S
C693       C1629   1.485       .  S
O695        C698   1.281       .  A
O696        C698   1.276       .  A
C698       C1245   1.466       .  S
O699        C704   1.263       .  A
O700        C702   1.266       .  A
C701        O703   1.259       .  A
C701        C842   1.490       .  S
C702        C861   1.504       .  S
C704       C2154   1.473       .  S
Fe705       O721   2.043       .  S
Fe705       O711   2.068       .  S
Fe705       O718   2.052       .  S
Fe705       O710   2.066       .  S
Fe705       O716   1.929       .  S
Fe706       O709   2.047       .  S
Fe706       O713   2.061       .  S
Fe706       O717   2.039       .  S
Fe706       O722   2.064       .  S
Fe706       O716   1.956       .  S
Fe707       O725   2.066       .  S
Fe707       O712   2.095       .  S
Fe707       O719   2.106       .  S
Fe707       O708   2.060       .  S
Fe707       O716   1.950       .  S
O708        C715   1.258       .  A
O709        C723   1.262       .  A
O710        C715   1.261       .  A
O711        C714   1.281       .  A
O712        C724   1.277       .  A
O713        C726   1.265       .  A
C714        O719   1.286       .  A
C714       C1514   1.479       .  S
C715       C1869   1.479       .  S
O717        C720   1.267       .  A
O718        C720   1.276       .  A
C720       C1322   1.454       .  S
O721        C726   1.259       .  A
O722        C724   1.270       .  A
C723        O725   1.266       .  A
C723        C906   1.472       .  S
C724        C826   1.477       .  S
C726       C1853   1.490       .  S
Fe727       O743   2.048       .  S
Fe727       O733   2.075       .  S
Fe727       O740   2.053   1_455  S
Fe727       O732   2.063   1_455  S
Fe727       O738   1.923       .  S
Fe728       O731   2.070       .  S
Fe728       O735   2.051       .  S
Fe728       O739   2.077       .  S
Fe728       O744   2.069       .  S
Fe728       O738   1.940       .  S
Fe729       O747   2.080       .  S
Fe729       O734   2.116   1_455  S
Fe729       O741   2.097       .  S
Fe729       O730   2.088   1_455  S
Fe729       O738   1.940       .  S
O730        C737   1.263       .  A
O731        C745   1.267       .  A
O732        C737   1.261       .  A
O733        C736   1.278       .  A
O734        C746   1.287       .  A
O735        C748   1.263       .  A
C736        O741   1.286       .  A
C736       C1965   1.477       .  S
C737       C1453   1.486       .  S
O739        C742   1.272   1_455  A
O740        C742   1.269       .  A
C742       C2397   1.465       .  S
O743        C748   1.270       .  A
O744        C746   1.273   1_455  A
C745        O747   1.266       .  A
C745        C810   1.489       .  S
C746        C829   1.499       .  S
C748       C1050   1.490       .  S
Fe749       O765   2.080       .  S
Fe749       O755   2.052       .  S
Fe749       O762   2.037       .  S
Fe749       O754   2.058       .  S
Fe749       O760   1.900       .  S
Fe750       O753   2.064       .  S
Fe750       O757   2.057       .  S
Fe750       O761   2.088       .  S
Fe750       O766   2.064       .  S
Fe750       O760   1.933       .  S
Fe751       O769   2.122       .  S
Fe751       O756   2.095       .  S
Fe751       O763   2.114       .  S
Fe751       O752   2.103       .  S
Fe751       O760   1.933       .  S
O752        C759   1.282       .  A
O753        C767   1.265       .  A
O754        C759   1.269       .  A
O755        C758   1.263       .  A
O756        C768   1.274       .  A
O757        C770   1.268       .  A
C758        O763   1.272       .  A
C758       C1258   1.503       .  S
C759       C1722   1.475       .  S
O761        C764   1.273       .  A
O762        C764   1.257       .  A
C764       C1437   1.488       .  S
O765        C770   1.275       .  A
O766        C768   1.274       .  A
C767        O769   1.286       .  A
C767        C797   1.513       .  S
C768        C813   1.493       .  S
C770       C1613   1.470       .  S
Fe771       O787   2.032       .  S
Fe771       O777   2.077       .  S
Fe771       O784   2.075       .  S
Fe771       O776   2.016       .  S
Fe771       O782   1.946       .  S
Fe772       O775   2.032       .  S
Fe772       O779   2.105       .  S
Fe772       O783   2.058       .  S
Fe772       O788   2.093       .  S
Fe772       O782   1.963       .  S
Fe773       O791   2.130       .  S
Fe773       O778   2.035       .  S
Fe773       O785   2.070       .  S
Fe773       O774   2.132       .  S
Fe773       O782   1.967       .  S
O774        C781   1.287       .  A
O775        C789   1.266       .  A
O776        C781   1.268       .  A
O777        C780   1.267       .  A
O778        C790   1.259       .  A
O779        C792   1.280       .  A
C780        O785   1.262       .  A
C780       C1773   1.484       .  S
C781       C1290   1.472       .  S
O783        C786   1.262       .  A
O784        C786   1.266       .  A
C786       C1917   1.470       .  S
O787        C792   1.268       .  A
O788        C790   1.272       .  A
C789        O791   1.286       .  A
C789        C794   1.484       .  S
C790        C845   1.483       .  S
C792       C1546   1.487       .  S
C793        C794   1.397   1_565  A
C793        C798   1.411       .  A
C793        H800   1.083   1_565  S
C794        C795   1.415   1_545  A
C795        C796   1.413       .  A
C795        C802   1.512   1_565  S
C796        C797   1.409       .  A
C796        H801   1.084       .  S
C797        C798   1.439       .  A
C798        C799   1.528       .  S
C799        F803   1.385       .  S
C799        F804   1.383       .  S
C799        F805   1.380       .  S
C802        F806   1.382       .  S
C802        F807   1.383       .  S
C802        F808   1.384   1_545  S
C809        C810   1.404       .  A
C809        C814   1.411       .  A
C809        H816   1.083       .  S
C810        C811   1.421       .  A
C811        C812   1.407       .  A
C811        C818   1.521       .  S
C812        C813   1.404       .  A
C812        H817   1.083       .  S
C813        C814   1.425       .  A
C814        C815   1.521       .  S
C815        F819   1.385       .  S
C815        F820   1.384       .  S
C815        F821   1.383       .  S
C818        F822   1.382       .  S
C818        F823   1.384       .  S
C818        F824   1.385       .  S
C825        C826   1.412       .  A
C825        C830   1.420       .  A
C825        H832   1.083       .  S
C826        C827   1.404       .  A
C827        C828   1.399       .  A
C827        C834   1.519       .  S
C828        C829   1.412       .  A
C828        H833   1.077       .  S
C829        C830   1.417       .  A
C830        C831   1.516       .  S
C831        F835   1.384       .  S
C831        F836   1.383       .  S
C831        F837   1.383       .  S
C834        F838   1.383       .  S
C834        F839   1.383       .  S
C834        F840   1.385       .  S
C841        C842   1.403       .  A
C841        C846   1.406       .  A
C841        H848   1.083       .  S
C842        C843   1.425       .  A
C843        C844   1.410       .  A
C843        C850   1.520       .  S
C844        C845   1.401       .  A
C844        H849   1.083       .  S
C845        C846   1.422       .  A
C846        C847   1.522       .  S
C847        F851   1.385       .  S
C847        F852   1.383       .  S
C847        F853   1.381       .  S
C850        F854   1.383       .  S
C850        F855   1.383       .  S
C850        F856   1.385       .  S
C857        C858   1.413       .  A
C857        C862   1.417       .  A
C857        H864   1.081       .  S
C858        C859   1.407       .  A
C859        C860   1.409       .  A
C859        C866   1.517       .  S
C860        C861   1.418       .  A
C860        H865   1.082       .  S
C861        C862   1.415       .  A
C862        C863   1.517       .  S
C863        F867   1.383       .  S
C863        F868   1.382       .  S
C863        F869   1.383       .  S
C866        F870   1.383       .  S
C866        F871   1.383       .  S
C866        F872   1.384       .  S
C873        C874   1.422       .  A
C873        C878   1.401       .  A
C873        H880   1.081       .  S
C874        C875   1.421       .  A
C875        C876   1.419       .  A
C875        C882   1.516       .  S
C876        C877   1.407       .  A
C876        H881   1.078       .  S
C877        C878   1.405       .  A
C878        C879   1.521       .  S
C879        F883   1.384       .  S
C879        F884   1.383       .  S
C879        F885   1.383       .  S
C882        F886   1.384       .  S
C882        F887   1.383       .  S
C882        F888   1.383       .  S
C889        C890   1.407   1_556  A
C889        C894   1.409   1_556  A
C889        H896   1.082       .  S
C890        C891   1.432       .  A
C891        C892   1.419       .  A
C891        C898   1.521       .  S
C892        C893   1.405       .  A
C892        H897   1.082       .  S
C893        C894   1.424       .  A
C894        C895   1.520   1_554  S
C895        F899   1.385       .  S
C895        F900   1.380   1_556  S
C895        F901   1.381       .  S
C898        F902   1.384       .  S
C898        F903   1.383       .  S
C898        F904   1.385       .  S
C905        C906   1.406       .  A
C905        C910   1.402       .  A
C905        H912   1.083       .  S
C906        C907   1.416   1_655  A
C907        C908   1.403       .  A
C907        C914   1.520       .  S
C908        C909   1.404       .  A
C908        H913   1.083       .  S
C909        C910   1.413   1_455  A
C910        C911   1.519       .  S
C911        F915   1.385       .  S
C911        F916   1.382       .  S
C911        F917   1.383       .  S
C914        F918   1.384       .  S
C914        F919   1.383       .  S
C914        F920   1.385       .  S
C921        C922   1.417       .  A
C921        C926   1.410       .  A
C921        H928   1.081       .  S
C922        C923   1.414       .  A
C923        C924   1.414       .  A
C923        C930   1.515       .  S
C924        C925   1.414       .  A
C924        H929   1.084       .  S
C925        C926   1.409       .  A
C926        C927   1.516       .  S
C927        F931   1.382       .  S
C927        F932   1.380   1_455  S
C927        F933   1.385       .  S
C930        F934   1.383       .  S
C930        F935   1.383       .  S
C930        F936   1.385       .  S
C937        C938   1.401       .  A
C937        C942   1.406       .  A
C937        H944   1.084       .  S
C938        C939   1.415       .  A
C939        C940   1.405       .  A
C939        C946   1.515       .  S
C940        C941   1.403       .  A
C940        H945   1.083       .  S
C941        C942   1.419       .  A
C942        C943   1.520       .  S
C943        F947   1.385       .  S
C943        F948   1.382       .  S
C943        F949   1.384       .  S
C946        F950   1.382       .  S
C946        F951   1.382       .  S
C946        F952   1.384       .  S
C953        C954   1.409       .  A
C953        C958   1.407       .  A
C953        H960   1.083       .  S
C954        C955   1.423       .  A
C955        C956   1.412       .  A
C955        C962   1.518       .  S
C956        C957   1.403       .  A
C956        H961   1.083       .  S
C957        C958   1.413       .  A
C958        C959   1.518       .  S
C959        F963   1.384       .  S
C959        F964   1.383       .  S
C959        F965   1.382       .  S
C962        F966   1.383       .  S
C962        F967   1.381       .  S
C962        F968   1.385       .  S
C969        C970   1.412       .  A
C969        C974   1.414   1_545  A
C969        H976   1.072       .  S
C970        C971   1.409   1_545  A
C971        C972   1.413       .  A
C971        C978   1.515       .  S
C972        C973   1.414       .  A
C972        H977   1.080       .  S
C973        C974   1.410       .  A
C974        C975   1.518       .  S
C975        F979   1.381   1_565  S
C975        F980   1.384       .  S
C975        F981   1.383       .  S
C978        F982   1.382       .  S
C978        F983   1.383       .  S
C978        F984   1.385       .  S
C985        C986   1.411       .  A
C985        C990   1.411       .  A
C985        H992   1.082       .  S
C986        C987   1.416       .  A
C987        C988   1.413       .  A
C987        C994   1.520       .  S
C988        C989   1.408       .  A
C988        H993   1.083       .  S
C989        C990   1.412       .  A
C990        C991   1.513       .  S
C991        F995   1.379       .  S
C991        F996   1.383       .  S
C991        F997   1.382       .  S
C994        F998   1.382       .  S
C994        F999   1.380       .  S
C994       F1000   1.385       .  S
C1001      C1002   1.399       .  A
C1001      C1006   1.401       .  A
C1001      H1008   1.085       .  S
C1002      C1003   1.412       .  A
C1003      C1004   1.400       .  A
C1003      C1010   1.518       .  S
C1004      C1005   1.402       .  A
C1004      H1009   1.082       .  S
C1005      C1006   1.414       .  A
C1006      C1007   1.510       .  S
C1007      F1011   1.383       .  S
C1007      F1012   1.380       .  S
C1007      F1013   1.383       .  S
C1010      F1014   1.380       .  S
C1010      F1015   1.382       .  S
C1010      F1016   1.384       .  S
C1017      C1018   1.408       .  A
C1017      C1022   1.421       .  A
C1017      H1024   1.083       .  S
C1018      C1019   1.441       .  A
C1019      C1020   1.389       .  A
C1019      C1026   1.533       .  S
C1020      C1021   1.386       .  A
C1020      H1025   1.083       .  S
C1021      C1022   1.417       .  A
C1022      C1023   1.513       .  S
C1023      F1027   1.385       .  S
C1023      F1028   1.383       .  S
C1023      F1029   1.383       .  S
C1026      F1030   1.374       .  S
C1026      F1031   1.378       .  S
C1026      F1032   1.386       .  S
C1033      C1034   1.418       .  A
C1033      C1038   1.407       .  A
C1033      H1040   1.081       .  S
C1034      C1035   1.418       .  A
C1035      C1036   1.416       .  A
C1035      C1042   1.515       .  S
C1036      C1037   1.411       .  A
C1036      H1041   1.084       .  S
C1037      C1038   1.406       .  A
C1038      C1039   1.516       .  S
C1039      F1043   1.385       .  S
C1039      F1044   1.383       .  S
C1039      F1045   1.383   1_565  S
C1042      F1046   1.382       .  S
C1042      F1047   1.383       .  S
C1042      F1048   1.385       .  S
C1049      C1050   1.405       .  A
C1049      C1054   1.394       .  A
C1049      H1056   1.082       .  S
C1050      C1051   1.428       .  A
C1051      C1052   1.410       .  A
C1051      C1058   1.519       .  S
C1052      C1053   1.399       .  A
C1052      H1057   1.084       .  S
C1053      C1054   1.415       .  A
C1054      C1055   1.523   1_565  S
C1055      F1059   1.385       .  S
C1055      F1060   1.378       .  S
C1055      F1061   1.381       .  S
C1058      F1062   1.383       .  S
C1058      F1063   1.384       .  S
C1058      F1064   1.382       .  S
C1065      C1066   1.405       .  A
C1065      C1070   1.407       .  A
C1065      H1072   1.084       .  S
C1066      C1067   1.409       .  A
C1067      C1068   1.410       .  A
C1067      C1074   1.514       .  S
C1068      C1069   1.409       .  A
C1068      H1073   1.084       .  S
C1069      C1070   1.416       .  A
C1070      C1071   1.516       .  S
C1071      F1075   1.385       .  S
C1071      F1076   1.381       .  S
C1071      F1077   1.383       .  S
C1074      F1078   1.383       .  S
C1074      F1079   1.383       .  S
C1074      F1080   1.384       .  S
C1081      C1082   1.408       .  A
C1081      C1086   1.406       .  A
C1081      H1088   1.083       .  S
C1082      C1083   1.419       .  A
C1083      C1084   1.410       .  A
C1083      C1090   1.519       .  S
C1084      C1085   1.409       .  A
C1084      H1089   1.083       .  S
C1085      C1086   1.418       .  A
C1086      C1087   1.521       .  S
C1087      F1091   1.385       .  S
C1087      F1092   1.384       .  S
C1087      F1093   1.382       .  S
C1090      F1094   1.382       .  S
C1090      F1095   1.383       .  S
C1090      F1096   1.385       .  S
C1097      C1098   1.404       .  A
C1097      C1102   1.401       .  A
C1097      H1104   1.084       .  S
C1098      C1099   1.417       .  A
C1099      C1100   1.403       .  A
C1099      C1106   1.520       .  S
C1100      C1101   1.403       .  A
C1100      H1105   1.085       .  S
C1101      C1102   1.410       .  A
C1102      C1103   1.518       .  S
C1103      F1107   1.384       .  S
C1103      F1108   1.383       .  S
C1103      F1109   1.383       .  S
C1106      F1110   1.381       .  S
C1106      F1111   1.384       .  S
C1106      F1112   1.383       .  S
C1113      C1114   1.405       .  A
C1113      C1118   1.408       .  A
C1113      H1120   1.082       .  S
C1114      C1115   1.411       .  A
C1115      C1116   1.406       .  A
C1115      C1122   1.511       .  S
C1116      C1117   1.408       .  A
C1116      H1121   1.085       .  S
C1117      C1118   1.413       .  A
C1118      C1119   1.515       .  S
C1119      F1123   1.384       .  S
C1119      F1124   1.380       .  S
C1119      F1125   1.383       .  S
C1122      F1126   1.381       .  S
C1122      F1127   1.384       .  S
C1122      F1128   1.384       .  S
C1129      C1130   1.413       .  A
C1129      C1134   1.408       .  A
C1129      H1136   1.077       .  S
C1130      C1131   1.407       .  A
C1131      C1132   1.410       .  A
C1131      C1138   1.516       .  S
C1132      C1133   1.415       .  A
C1132      H1137   1.078       .  S
C1133      C1134   1.408       .  A
C1134      C1135   1.518       .  S
C1135      F1139   1.382       .  S
C1135      F1140   1.384       .  S
C1135      F1141   1.382       .  S
C1138      F1142   1.383       .  S
C1138      F1143   1.383       .  S
C1138      F1144   1.385       .  S
C1145      C1146   1.398       .  A
C1145      C1150   1.405       .  A
C1145      H1152   1.084       .  S
C1146      C1147   1.411       .  A
C1147      C1148   1.395       .  A
C1147      C1154   1.517       .  S
C1148      C1149   1.400       .  A
C1148      H1153   1.084       .  S
C1149      C1150   1.421       .  A
C1150      C1151   1.519       .  S
C1151      F1155   1.385       .  S
C1151      F1156   1.383       .  S
C1151      F1157   1.382       .  S
C1154      F1158   1.383       .  S
C1154      F1159   1.379       .  S
C1154      F1160   1.385       .  S
C1161      C1162   1.411       .  A
C1161      C1166   1.413       .  A
C1161      H1168   1.083       .  S
C1162      C1163   1.417   1_556  A
C1163      C1164   1.413   1_554  A
C1163      C1170   1.511       .  S
C1164      C1165   1.406       .  A
C1164      H1169   1.084   1_556  S
C1165      C1166   1.411       .  A
C1166      C1167   1.514       .  S
C1167      F1171   1.384       .  S
C1167      F1172   1.383       .  S
C1167      F1173   1.381       .  S
C1170      F1174   1.383       .  S
C1170      F1175   1.382       .  S
C1170      F1176   1.382       .  S
C1177      C1178   1.399       .  A
C1177      C1182   1.396       .  A
C1177      H1184   1.083       .  S
C1178      C1179   1.421       .  A
C1179      C1180   1.406       .  A
C1179      C1186   1.518       .  S
C1180      C1181   1.398       .  A
C1180      H1185   1.083       .  S
C1181      C1182   1.414       .  A
C1182      C1183   1.514       .  S
C1183      F1187   1.385       .  S
C1183      F1188   1.381       .  S
C1183      F1189   1.380       .  S
C1186      F1190   1.383       .  S
C1186      F1191   1.380       .  S
C1186      F1192   1.384       .  S
C1193      C1194   1.414       .  A
C1193      C1198   1.410       .  A
C1193      H1200   1.081       .  S
C1194      C1195   1.423       .  A
C1195      C1196   1.411       .  A
C1195      C1202   1.522       .  S
C1196      C1197   1.411       .  A
C1196      H1201   1.082       .  S
C1197      C1198   1.419       .  A
C1198      C1199   1.521       .  S
C1199      F1203   1.385       .  S
C1199      F1204   1.383       .  S
C1199      F1205   1.383       .  S
C1202      F1206   1.384       .  S
C1202      F1207   1.383       .  S
C1202      F1208   1.385       .  S
C1209      C1210   1.411       .  A
C1209      C1214   1.410   1_545  A
C1209      H1216   1.081       .  S
C1210      C1211   1.415       .  A
C1211      C1212   1.406   1_545  A
C1211      C1218   1.517       .  S
C1212      C1213   1.408       .  A
C1212      H1217   1.084       .  S
C1213      C1214   1.408       .  A
C1214      C1215   1.514       .  S
C1215      F1219   1.384       .  S
C1215      F1220   1.383       .  S
C1215      F1221   1.380       .  S
C1218      F1222   1.383       .  S
C1218      F1223   1.380       .  S
C1218      F1224   1.385       .  S
C1225      C1226   1.417       .  A
C1225      C1230   1.399       .  A
C1225      H1232   1.083       .  S
C1226      C1227   1.422       .  A
C1227      C1228   1.424       .  A
C1227      C1234   1.513       .  S
C1228      C1229   1.410       .  A
C1228      H1233   1.083       .  S
C1229      C1230   1.411       .  A
C1230      C1231   1.522   1_655  S
C1231      F1235   1.384       .  S
C1231      F1236   1.383       .  S
C1231      F1237   1.383       .  S
C1234      F1238   1.383       .  S
C1234      F1239   1.381       .  S
C1234      F1240   1.385       .  S
C1241      C1242   1.408       .  A
C1241      C1246   1.398   1_556  A
C1241      H1248   1.083       .  S
C1242      C1243   1.425       .  A
C1243      C1244   1.409   1_556  A
C1243      C1250   1.523       .  S
C1244      C1245   1.399       .  A
C1244      H1249   1.082       .  S
C1245      C1246   1.411       .  A
C1246      C1247   1.521       .  S
C1247      F1251   1.385   1_554  S
C1247      F1252   1.382       .  S
C1247      F1253   1.381       .  S
C1250      F1254   1.380       .  S
C1250      F1255   1.383       .  S
C1250      F1256   1.381   1_556  S
C1257      C1258   1.418       .  A
C1257      C1262   1.424       .  A
C1257      H1264   1.083       .  S
C1258      C1259   1.425       .  A
C1259      C1260   1.399       .  A
C1259      C1266   1.528       .  S
C1260      C1261   1.404       .  A
C1260      H1265   1.076       .  S
C1261      C1262   1.412       .  A
C1262      C1263   1.513       .  S
C1263      F1267   1.384       .  S
C1263      F1268   1.384       .  S
C1263      F1269   1.383       .  S
C1266      F1270   1.383       .  S
C1266      F1271   1.379       .  S
C1266      F1272   1.385       .  S
C1273      C1274   1.401       .  A
C1273      C1278   1.404       .  A
C1273      H1280   1.085       .  S
C1274      C1275   1.420       .  A
C1275      C1276   1.398       .  A
C1275      C1282   1.521       .  S
C1276      C1277   1.403       .  A
C1276      H1281   1.082       .  S
C1277      C1278   1.419       .  A
C1278      C1279   1.515       .  S
C1279      F1283   1.385       .  S
C1279      F1284   1.384       .  S
C1279      F1285   1.383       .  S
C1282      F1286   1.379       .  S
C1282      F1287   1.382       .  S
C1282      F1288   1.385       .  S
C1289      C1290   1.397       .  A
C1289      C1294   1.403       .  A
C1289      H1296   1.078       .  S
C1290      C1291   1.415       .  A
C1291      C1292   1.413       .  A
C1291      C1298   1.516       .  S
C1292      C1293   1.403       .  A
C1292      H1297   1.083       .  S
C1293      C1294   1.419       .  A
C1294      C1295   1.515       .  S
C1295      F1299   1.385       .  S
C1295      F1300   1.381       .  S
C1295      F1301   1.382       .  S
C1298      F1302   1.382       .  S
C1298      F1303   1.383       .  S
C1298      F1304   1.384       .  S
C1305      C1306   1.417       .  A
C1305      C1310   1.405       .  A
C1305      H1312   1.079       .  S
C1306      C1307   1.417       .  A
C1307      C1308   1.420       .  A
C1307      C1314   1.516       .  S
C1308      C1309   1.416       .  A
C1308      H1313   1.083       .  S
C1309      C1310   1.405       .  A
C1310      C1311   1.518       .  S
C1311      F1315   1.385       .  S
C1311      F1316   1.383       .  S
C1311      F1317   1.383       .  S
C1314      F1318   1.383       .  S
C1314      F1319   1.383       .  S
C1314      F1320   1.384       .  S
C1321      C1322   1.395       .  A
C1321      C1326   1.390       .  A
C1321      H1328   1.084       .  S
C1322      C1323   1.415       .  A
C1323      C1324   1.403       .  A
C1323      C1330   1.518       .  S
C1324      C1325   1.398       .  A
C1324      H1329   1.079       .  S
C1325      C1326   1.411       .  A
C1326      C1327   1.511       .  S
C1327      F1331   1.385       .  S
C1327      F1332   1.380       .  S
C1327      F1333   1.383       .  S
C1330      F1334   1.384       .  S
C1330      F1335   1.383       .  S
C1330      F1336   1.384       .  S
C1337      C1338   1.409       .  A
C1337      C1342   1.406       .  A
C1337      H1344   1.083       .  S
C1338      C1339   1.418       .  A
C1339      C1340   1.408       .  A
C1339      C1346   1.519       .  S
C1340      C1341   1.408       .  A
C1340      H1345   1.083       .  S
C1341      C1342   1.417       .  A
C1342      C1343   1.517       .  S
C1343      F1347   1.385       .  S
C1343      F1348   1.381       .  S
C1343      F1349   1.382       .  S
C1346      F1350   1.383       .  S
C1346      F1351   1.383       .  S
C1346      F1352   1.385       .  S
C1353      C1354   1.395   1_565  A
C1353      C1358   1.411       .  A
C1353      H1360   1.081   1_565  S
C1354      C1355   1.416   1_545  A
C1355      C1356   1.409       .  A
C1355      C1362   1.516   1_565  S
C1356      C1357   1.402       .  A
C1356      H1361   1.083       .  S
C1357      C1358   1.426       .  A
C1358      C1359   1.509       .  S
C1359      F1363   1.384       .  S
C1359      F1364   1.383       .  S
C1359      F1365   1.376       .  S
C1362      F1366   1.383       .  S
C1362      F1367   1.380       .  S
C1362      F1368   1.384   1_545  S
C1369      C1370   1.411       .  A
C1369      C1374   1.406       .  A
C1369      H1376   1.082       .  S
C1370      C1371   1.431       .  A
C1371      C1372   1.404       .  A
C1371      C1378   1.526       .  S
C1372      C1373   1.398       .  A
C1372      H1377   1.084       .  S
C1373      C1374   1.406       .  A
C1374      C1375   1.510   1_554  S
C1375      F1379   1.384   1_556  S
C1375      F1380   1.380       .  S
C1375      F1381   1.383       .  S
C1378      F1382   1.384       .  S
C1378      F1383   1.382       .  S
C1378      F1384   1.385       .  S
C1385      C1386   1.411       .  A
C1385      C1390   1.412       .  A
C1385      H1392   1.084       .  S
C1386      C1387   1.412       .  A
C1387      C1388   1.413       .  A
C1387      C1394   1.514       .  S
C1388      C1389   1.408       .  A
C1388      H1393   1.081       .  S
C1389      C1390   1.413       .  A
C1390      C1391   1.516       .  S
C1391      F1395   1.385       .  S
C1391      F1396   1.382       .  S
C1391      F1397   1.384       .  S
C1394      F1398   1.382       .  S
C1394      F1399   1.383   1_554  S
C1394      F1400   1.384   1_554  S
C1401      C1402   1.410       .  A
C1401      C1406   1.423       .  A
C1401      H1408   1.083       .  S
C1402      C1403   1.408       .  A
C1403      C1404   1.400       .  A
C1403      C1410   1.523   1_455  S
C1404      C1405   1.417       .  A
C1404      H1409   1.082       .  S
C1405      C1406   1.420       .  A
C1406      C1407   1.513       .  S
C1407      F1411   1.383       .  S
C1407      F1412   1.383       .  S
C1407      F1413   1.383       .  S
C1410      F1414   1.382       .  S
C1410      F1415   1.383       .  S
C1410      F1416   1.385       .  S
C1417      C1418   1.409       .  A
C1417      C1422   1.404   1_454  A
C1417      H1424   1.083       .  S
C1418      C1419   1.418   1_455  A
C1419      C1420   1.401       .  A
C1419      C1426   1.520       .  S
C1420      C1421   1.402   1_554  A
C1420      H1425   1.084       .  S
C1421      C1422   1.411       .  A
C1422      C1423   1.519   1_655  S
C1423      F1427   1.385       .  S
C1423      F1428   1.383   1_455  S
C1423      F1429   1.383       .  S
C1426      F1430   1.384       .  S
C1426      F1431   1.383       .  S
C1426      F1432   1.385       .  S
C1433      C1434   1.406       .  A
C1433      C1438   1.398       .  A
C1433      H1440   1.082       .  S
C1434      C1435   1.417       .  A
C1435      C1436   1.410       .  A
C1435      C1442   1.509       .  S
C1436      C1437   1.408       .  A
C1436      H1441   1.082       .  S
C1437      C1438   1.426       .  A
C1438      C1439   1.530       .  S
C1439      F1443   1.385       .  S
C1439      F1444   1.384       .  S
C1439      F1445   1.384       .  S
C1442      F1446   1.381       .  S
C1442      F1447   1.381       .  S
C1442      F1448   1.385       .  S
C1449      C1450   1.407       .  A
C1449      C1454   1.413       .  A
C1449      H1456   1.083       .  S
C1450      C1451   1.414       .  A
C1451      C1452   1.407       .  A
C1451      C1458   1.510       .  S
C1452      C1453   1.403       .  A
C1452      H1457   1.085       .  S
C1453      C1454   1.413       .  A
C1454      C1455   1.513       .  S
C1455      F1459   1.379       .  S
C1455      F1460   1.383       .  S
C1455      F1461   1.384       .  S
C1458      F1462   1.382       .  S
C1458      F1463   1.381       .  S
C1458      F1464   1.384       .  S
C1465      C1466   1.403       .  A
C1465      C1470   1.411       .  A
C1465      H1472   1.083       .  S
C1466      C1467   1.412       .  A
C1467      C1468   1.407       .  A
C1467      C1474   1.518       .  S
C1468      C1469   1.411       .  A
C1468      H1473   1.082       .  S
C1469      C1470   1.426       .  A
C1470      C1471   1.518       .  S
C1471      F1475   1.385       .  S
C1471      F1476   1.383       .  S
C1471      F1477   1.382       .  S
C1474      F1478   1.383       .  S
C1474      F1479   1.383       .  S
C1474      F1480   1.384       .  S
C1481      C1482   1.399   1_565  A
C1481      C1486   1.400   1_565  A
C1481      H1488   1.085       .  S
C1482      C1483   1.421       .  A
C1483      C1484   1.407       .  A
C1483      C1490   1.517       .  S
C1484      C1485   1.401       .  A
C1484      H1489   1.085       .  S
C1485      C1486   1.416       .  A
C1486      C1487   1.514   1_545  S
C1487      F1491   1.383       .  S
C1487      F1492   1.382   1_565  S
C1487      F1493   1.383       .  S
C1490      F1494   1.379       .  S
C1490      F1495   1.382       .  S
C1490      F1496   1.383       .  S
C1497      C1498   1.416       .  A
C1497      C1502   1.413   1_545  A
C1497      H1504   1.081       .  S
C1498      C1499   1.421   1_545  A
C1499      C1500   1.415       .  A
C1499      C1506   1.519       .  S
C1500      C1501   1.414       .  A
C1500      H1505   1.082       .  S
C1501      C1502   1.421       .  A
C1502      C1503   1.522       .  S
C1503      F1507   1.385   1_565  S
C1503      F1508   1.383       .  S
C1503      F1509   1.384       .  S
C1506      F1510   1.383       .  S
C1506      F1511   1.383   1_565  S
C1506      F1512   1.385       .  S
C1513      C1514   1.397       .  A
C1513      C1518   1.410       .  A
C1513      H1520   1.083       .  S
C1514      C1515   1.410       .  A
C1515      C1516   1.412       .  A
C1515      C1522   1.515       .  S
C1516      C1517   1.404       .  A
C1516      H1521   1.083       .  S
C1517      C1518   1.425       .  A
C1518      C1519   1.512       .  S
C1519      F1523   1.382       .  S
C1519      F1524   1.382       .  S
C1519      F1525   1.379       .  S
C1522      F1526   1.382       .  S
C1522      F1527   1.385       .  S
C1522      F1528   1.384       .  S
C1529      C1530   1.413       .  A
C1529      C1534   1.420       .  A
C1529      H1536   1.083       .  S
C1530      C1531   1.408       .  A
C1531      C1532   1.410   1_545  A
C1531      C1538   1.517       .  S
C1532      C1533   1.417   1_565  A
C1532      H1537   1.080       .  S
C1533      C1534   1.419       .  A
C1534      C1535   1.516       .  S
C1535      F1539   1.385       .  S
C1535      F1540   1.383       .  S
C1535      F1541   1.383       .  S
C1538      F1542   1.383   1_545  S
C1538      F1543   1.383       .  S
C1538      F1544   1.384   1_545  S
C1545      C1546   1.414       .  A
C1545      C1550   1.410       .  A
C1545      H1552   1.083       .  S
C1546      C1547   1.425       .  A
C1547      C1548   1.400       .  A
C1547      C1554   1.525       .  S
C1548      C1549   1.399       .  A
C1548      H1553   1.082       .  S
C1549      C1550   1.406       .  A
C1550      C1551   1.514       .  S
C1551      F1555   1.384       .  S
C1551      F1556   1.383       .  S
C1551      F1557   1.383       .  S
C1554      F1558   1.384       .  S
C1554      F1559   1.382       .  S
C1554      F1560   1.385       .  S
C1561      C1562   1.409       .  A
C1561      C1566   1.413       .  A
C1561      H1568   1.083       .  S
C1562      C1563   1.422       .  A
C1563      C1564   1.398       .  A
C1563      C1570   1.522       .  S
C1564      C1565   1.398       .  A
C1564      H1569   1.083       .  S
C1565      C1566   1.413       .  A
C1566      C1567   1.515       .  S
C1567      F1571   1.384       .  S
C1567      F1572   1.383       .  S
C1567      F1573   1.383       .  S
C1570      F1574   1.378       .  S
C1570      F1575   1.383       .  S
C1570      F1576   1.385       .  S
C1577      C1578   1.401       .  A
C1577      C1582   1.401       .  A
C1577      H1584   1.084       .  S
C1578      C1579   1.413       .  A
C1579      C1580   1.417       .  A
C1579      C1586   1.514       .  S
C1580      C1581   1.411       .  A
C1580      H1585   1.084       .  S
C1581      C1582   1.414       .  A
C1582      C1583   1.513       .  S
C1583      F1587   1.383       .  S
C1583      F1588   1.383       .  S
C1583      F1589   1.383   1_554  S
C1586      F1590   1.383       .  S
C1586      F1591   1.384       .  S
C1586      F1592   1.385       .  S
C1593      C1594   1.403       .  A
C1593      C1598   1.406       .  A
C1593      H1600   1.084       .  S
C1594      C1595   1.413       .  A
C1595      C1596   1.402       .  A
C1595      C1602   1.515       .  S
C1596      C1597   1.403       .  A
C1596      H1601   1.084       .  S
C1597      C1598   1.415       .  A
C1598      C1599   1.516       .  S
C1599      F1603   1.385       .  S
C1599      F1604   1.382       .  S
C1599      F1605   1.383       .  S
C1602      F1606   1.380       .  S
C1602      F1607   1.383       .  S
C1602      F1608   1.385       .  S
C1609      C1610   1.401       .  A
C1609      C1614   1.396       .  A
C1609      H1616   1.085       .  S
C1610      C1611   1.414       .  A
C1611      C1612   1.409       .  A
C1611      C1618   1.515       .  S
C1612      C1613   1.405       .  A
C1612      H1617   1.084       .  S
C1613      C1614   1.414       .  A
C1614      C1615   1.516       .  S
C1615      F1619   1.384       .  S
C1615      F1620   1.382       .  S
C1615      F1621   1.383       .  S
C1618      F1622   1.385       .  S
C1618      F1623   1.384       .  S
C1618      F1624   1.382       .  S
C1625      C1626   1.398       .  A
C1625      C1630   1.409   1_655  A
C1625      H1632   1.084       .  S
C1626      C1627   1.417       .  A
C1627      C1628   1.408   1_655  A
C1627      C1634   1.512       .  S
C1628      C1629   1.401       .  A
C1628      H1633   1.084       .  S
C1629      C1630   1.419       .  A
C1630      C1631   1.511       .  S
C1631      F1635   1.382       .  S
C1631      F1636   1.383       .  S
C1631      F1637   1.382       .  S
C1634      F1638   1.384       .  S
C1634      F1639   1.381       .  S
C1634      F1640   1.383   1_655  S
C1641      C1642   1.405       .  A
C1641      C1646   1.409       .  A
C1641      H1648   1.085       .  S
C1642      C1643   1.409       .  A
C1643      C1644   1.410       .  A
C1643      C1650   1.517       .  S
C1644      C1645   1.409       .  A
C1644      H1649   1.082       .  S
C1645      C1646   1.415       .  A
C1646      C1647   1.511       .  S
C1647      F1651   1.383       .  S
C1647      F1652   1.380       .  S
C1647      F1653   1.382       .  S
C1650      F1654   1.382       .  S
C1650      F1655   1.383       .  S
C1650      F1656   1.384       .  S
C1657      C1658   1.415       .  A
C1657      C1662   1.404       .  A
C1657      H1664   1.083       .  S
C1658      C1659   1.409       .  A
C1659      C1660   1.408       .  A
C1659      C1666   1.517       .  S
C1660      C1661   1.416       .  A
C1660      H1665   1.083       .  S
C1661      C1662   1.409       .  A
C1662      C1663   1.518       .  S
C1663      F1667   1.384       .  S
C1663      F1668   1.383       .  S
C1663      F1669   1.383       .  S
C1666      F1670   1.383       .  S
C1666      F1671   1.384       .  S
C1666      F1672   1.383       .  S
C1673      C1674   1.396       .  A
C1673      C1678   1.396       .  A
C1673      H1680   1.083       .  S
C1674      C1675   1.418       .  A
C1675      C1676   1.411       .  A
C1675      C1682   1.517       .  S
C1676      C1677   1.402       .  A
C1676      H1681   1.083   1_554  S
C1677      C1678   1.417       .  A
C1678      C1679   1.512   1_655  S
C1679      F1683   1.386       .  S
C1679      F1684   1.376       .  S
C1679      F1685   1.380       .  S
C1682      F1686   1.383       .  S
C1682      F1687   1.381       .  S
C1682      F1688   1.380       .  S
C1689      C1690   1.402       .  A
C1689      C1694   1.397       .  A
C1689      H1696   1.084       .  S
C1690      C1691   1.423       .  A
C1691      C1692   1.408   1_556  A
C1691      C1698   1.519       .  S
C1692      C1693   1.399       .  A
C1692      H1697   1.083       .  S
C1693      C1694   1.412   1_554  A
C1694      C1695   1.515   1_566  S
C1695      F1699   1.382       .  S
C1695      F1700   1.377       .  S
C1695      F1701   1.384   1_554  S
C1698      F1702   1.383       .  S
C1698      F1703   1.383       .  S
C1698      F1704   1.384   1_556  S
C1705      C1706   1.397       .  A
C1705      C1710   1.411       .  A
C1705      H1712   1.083       .  S
C1706      C1707   1.422       .  A
C1707      C1708   1.410       .  A
C1707      C1714   1.518       .  S
C1708      C1709   1.399       .  A
C1708      H1713   1.083       .  S
C1709      C1710   1.422       .  A
C1710      C1711   1.508       .  S
C1711      F1715   1.384       .  S
C1711      F1716   1.371       .  S
C1711      F1717   1.383       .  S
C1714      F1718   1.384       .  S
C1714      F1719   1.376       .  S
C1714      F1720   1.382       .  S
C1721      C1722   1.409       .  A
C1721      C1726   1.417       .  A
C1721      H1728   1.083       .  S
C1722      C1723   1.414       .  A
C1723      C1724   1.401       .  A
C1723      C1730   1.514       .  S
C1724      C1725   1.402       .  A
C1724      H1729   1.085       .  S
C1725      C1726   1.415       .  A
C1726      C1727   1.513       .  S
C1727      F1731   1.385       .  S
C1727      F1732   1.383       .  S
C1727      F1733   1.381       .  S
C1730      F1734   1.384       .  S
C1730      F1735   1.382       .  S
C1730      F1736   1.383       .  S
C1737      C1738   1.403       .  A
C1737      C1742   1.402       .  A
C1737      H1744   1.084       .  S
C1738      C1739   1.416       .  A
C1739      C1740   1.409       .  A
C1739      C1746   1.516       .  S
C1740      C1741   1.401       .  A
C1740      H1745   1.083       .  S
C1741      C1742   1.414       .  A
C1742      C1743   1.519       .  S
C1743      F1747   1.385       .  S
C1743      F1748   1.382       .  S
C1743      F1749   1.383       .  S
C1746      F1750   1.382       .  S
C1746      F1751   1.383       .  S
C1746      F1752   1.384       .  S
C1753      C1754   1.403       .  A
C1753      C1758   1.398       .  A
C1753      H1760   1.084       .  S
C1754      C1755   1.408       .  A
C1755      C1756   1.398       .  A
C1755      C1762   1.512       .  S
C1756      C1757   1.406       .  A
C1756      H1761   1.084       .  S
C1757      C1758   1.418       .  A
C1758      C1759   1.519       .  S
C1759      F1763   1.385       .  S
C1759      F1764   1.376       .  S
C1759      F1765   1.376       .  S
C1762      F1766   1.384       .  S
C1762      F1767   1.382       .  S
C1762      F1768   1.384       .  S
C1769      C1770   1.402       .  A
C1769      C1774   1.415       .  A
C1769      H1776   1.083       .  S
C1770      C1771   1.424       .  A
C1771      C1772   1.404       .  A
C1771      C1778   1.511       .  S
C1772      C1773   1.394       .  A
C1772      H1777   1.085       .  S
C1773      C1774   1.419       .  A
C1774      C1775   1.514       .  S
C1775      F1779   1.385       .  S
C1775      F1780   1.375       .  S
C1775      F1781   1.382       .  S
C1778      F1782   1.380       .  S
C1778      F1783   1.383       .  S
C1778      F1784   1.382       .  S
C1785      C1786   1.405       .  A
C1785      C1790   1.402       .  A
C1785      H1792   1.082       .  S
C1786      C1787   1.417       .  A
C1787      C1788   1.411       .  A
C1787      C1794   1.518       .  S
C1788      C1789   1.405       .  A
C1788      H1793   1.083       .  S
C1789      C1790   1.411       .  A
C1790      C1791   1.518       .  S
C1791      F1795   1.385       .  S
C1791      F1796   1.382       .  S
C1791      F1797   1.383       .  S
C1794      F1798   1.383       .  S
C1794      F1799   1.383       .  S
C1794      F1800   1.385       .  S
C1801      C1802   1.397       .  A
C1801      C1806   1.399       .  A
C1801      H1808   1.086       .  S
C1802      C1803   1.426       .  A
C1803      C1804   1.419       .  A
C1803      C1810   1.516       .  S
C1804      C1805   1.404       .  A
C1804      H1809   1.081       .  S
C1805      C1806   1.421       .  A
C1806      C1807   1.511       .  S
C1807      F1811   1.384       .  S
C1807      F1812   1.380       .  S
C1807      F1813   1.383       .  S
C1810      F1814   1.382       .  S
C1810      F1815   1.383       .  S
C1810      F1816   1.385       .  S
C1817      C1818   1.418       .  A
C1817      C1822   1.404   1_655  A
C1817      H1824   1.085       .  S
C1818      C1819   1.423       .  A
C1819      C1820   1.423   1_655  A
C1819      C1826   1.517       .  S
C1820      C1821   1.409       .  A
C1820      H1825   1.083       .  S
C1821      C1822   1.411       .  A
C1822      C1823   1.518       .  S
C1823      F1827   1.384   1_455  S
C1823      F1828   1.383       .  S
C1823      F1829   1.383       .  S
C1826      F1830   1.382       .  S
C1826      F1831   1.383       .  S
C1826      F1832   1.384       .  S
C1833      C1834   1.401       .  A
C1833      C1838   1.394       .  A
C1833      H1840   1.082       .  S
C1834      C1835   1.417       .  A
C1835      C1836   1.414       .  A
C1835      C1842   1.515       .  S
C1836      C1837   1.407       .  A
C1836      H1841   1.083       .  S
C1837      C1838   1.421       .  A
C1838      C1839   1.526       .  S
C1839      F1843   1.385       .  S
C1839      F1844   1.381       .  S
C1839      F1845   1.376       .  S
C1842      F1846   1.382       .  S
C1842      F1847   1.383       .  S
C1842      F1848   1.384       .  S
C1849      C1850   1.395       .  A
C1849      C1854   1.399       .  A
C1849      H1856   1.085       .  S
C1850      C1851   1.408       .  A
C1851      C1852   1.406       .  A
C1851      C1858   1.509       .  S
C1852      C1853   1.411       .  A
C1852      H1857   1.082       .  S
C1853      C1854   1.428       .  A
C1854      C1855   1.518       .  S
C1855      F1859   1.385       .  S
C1855      F1860   1.383       .  S
C1855      F1861   1.373       .  S
C1858      F1862   1.382       .  S
C1858      F1863   1.378       .  S
C1858      F1864   1.385       .  S
C1865      C1866   1.400       .  A
C1865      C1870   1.410       .  A
C1865      H1872   1.082       .  S
C1866      C1867   1.415       .  A
C1867      C1868   1.410       .  A
C1867      C1874   1.516       .  S
C1868      C1869   1.402       .  A
C1868      H1873   1.083       .  S
C1869      C1870   1.417       .  A
C1870      C1871   1.513       .  S
C1871      F1875   1.378       .  S
C1871      F1876   1.382       .  S
C1871      F1877   1.382       .  S
C1874      F1878   1.383       .  S
C1874      F1879   1.381       .  S
C1874      F1880   1.384       .  S
C1881      C1882   1.399       .  A
C1881      C1886   1.402       .  A
C1881      H1888   1.082       .  S
C1882      C1883   1.420       .  A
C1883      C1884   1.420       .  A
C1883      C1890   1.511       .  S
C1884      C1885   1.411       .  A
C1884      H1889   1.083       .  S
C1885      C1886   1.404       .  A
C1886      C1887   1.492       .  S
C1887      F1891   1.383       .  S
C1887      F1892   1.382       .  S
C1887      F1893   1.382       .  S
C1890      F1894   1.376       .  S
C1890      F1895   1.383       .  S
C1890      F1896   1.384       .  S
C1897      C1898   1.405       .  A
C1897      C1902   1.411       .  A
C1897      H1904   1.081       .  S
C1898      C1899   1.411       .  A
C1899      C1900   1.396       .  A
C1899      C1906   1.515       .  S
C1900      C1901   1.400       .  A
C1900      H1905   1.083       .  S
C1901      C1902   1.413       .  A
C1902      C1903   1.512       .  S
C1903      F1907   1.384       .  S
C1903      F1908   1.381       .  S
C1903      F1909   1.383       .  S
C1906      F1910   1.383       .  S
C1906      F1911   1.384       .  S
C1906      F1912   1.383       .  S
C1913      C1914   1.406       .  A
C1913      C1918   1.410       .  A
C1913      H1920   1.082       .  S
C1914      C1915   1.418       .  A
C1915      C1916   1.399       .  A
C1915      C1922   1.513       .  S
C1916      C1917   1.396       .  A
C1916      H1921   1.085       .  S
C1917      C1918   1.411       .  A
C1918      C1919   1.509       .  S
C1919      F1923   1.382       .  S
C1919      F1924   1.383       .  S
C1919      F1925   1.382       .  S
C1922      F1926   1.383       .  S
C1922      F1927   1.383       .  S
C1922      F1928   1.384       .  S
C1929      C1930   1.409       .  A
C1929      C1934   1.414       .  A
C1929      H1936   1.080       .  S
C1930      C1931   1.412       .  A
C1931      C1932   1.406       .  A
C1931      C1938   1.513       .  S
C1932      C1933   1.406   1_655  A
C1932      H1937   1.084   1_655  S
C1933      C1934   1.411   1_455  A
C1934      C1935   1.512   1_655  S
C1935      F1939   1.384   1_455  S
C1935      F1940   1.380       .  S
C1935      F1941   1.383       .  S
C1938      F1942   1.381       .  S
C1938      F1943   1.384       .  S
C1938      F1944   1.381       .  S
C1945      C1946   1.403       .  A
C1945      C1950   1.408       .  A
C1945      H1952   1.083       .  S
C1946      C1947   1.426       .  A
C1947      C1948   1.407       .  A
C1947      C1954   1.521       .  S
C1948      C1949   1.398       .  A
C1948      H1953   1.083       .  S
C1949      C1950   1.419       .  A
C1950      C1951   1.518       .  S
C1951      F1955   1.385       .  S
C1951      F1956   1.383       .  S
C1951      F1957   1.382       .  S
C1954      F1958   1.382       .  S
C1954      F1959   1.381       .  S
C1954      F1960   1.385       .  S
C1961      C1962   1.408       .  A
C1961      C1966   1.408   1_545  A
C1961      H1968   1.082       .  S
C1962      C1963   1.416       .  A
C1963      C1964   1.410   1_545  A
C1963      C1970   1.514       .  S
C1964      C1965   1.407       .  A
C1964      H1969   1.084       .  S
C1965      C1966   1.412       .  A
C1966      C1967   1.514       .  S
C1967      F1971   1.383       .  S
C1967      F1972   1.381       .  S
C1967      F1973   1.382       .  S
C1970      F1974   1.380       .  S
C1970      F1975   1.384       .  S
C1970      F1976   1.385   1_545  S
C1977      C1978   1.415       .  A
C1977      C1982   1.404       .  A
C1977      H1984   1.075       .  S
C1978      C1979   1.414       .  A
C1979      C1980   1.416       .  A
C1979      C1986   1.516       .  S
C1980      C1981   1.415       .  A
C1980      H1985   1.083       .  S
C1981      C1982   1.405       .  A
C1982      C1983   1.517       .  S
C1983      F1987   1.385       .  S
C1983      F1988   1.383       .  S
C1983      F1989   1.383       .  S
C1986      F1990   1.383       .  S
C1986      F1991   1.383       .  S
C1986      F1992   1.385       .  S
C1993      C1994   1.403       .  A
C1993      C1998   1.406       .  A
C1993      H2000   1.078       .  S
C1994      C1995   1.416       .  A
C1995      C1996   1.400       .  A
C1995      C2002   1.514       .  S
C1996      C1997   1.399       .  A
C1996      H2001   1.085       .  S
C1997      C1998   1.410       .  A
C1998      C1999   1.515       .  S
C1999      F2003   1.379       .  S
C1999      F2004   1.384       .  S
C1999      F2005   1.383       .  S
C2002      F2006   1.381       .  S
C2002      F2007   1.381       .  S
C2002      F2008   1.384       .  S
C2009      C2010   1.403       .  A
C2009      C2014   1.415       .  A
C2009      H2016   1.083       .  S
C2010      C2011   1.410       .  A
C2011      C2012   1.397       .  A
C2011      C2018   1.515       .  S
C2012      C2013   1.405       .  A
C2012      H2017   1.083       .  S
C2013      C2014   1.422       .  A
C2014      C2015   1.516   1_455  S
C2015      F2019   1.384       .  S
C2015      F2020   1.383       .  S
C2015      F2021   1.383       .  S
C2018      F2022   1.382       .  S
C2018      F2023   1.382       .  S
C2018      F2024   1.385       .  S
C2025      C2026   1.394   1_554  A
C2025      C2030   1.413       .  A
C2025      H2032   1.083       .  S
C2026      C2027   1.411       .  A
C2027      C2028   1.412       .  A
C2027      C2034   1.510       .  S
C2028      C2029   1.404       .  A
C2028      H2033   1.083       .  S
C2029      C2030   1.430   1_556  A
C2030      C2031   1.509       .  S
C2031      F2035   1.385       .  S
C2031      F2036   1.373       .  S
C2031      F2037   1.383       .  S
C2034      F2038   1.382       .  S
C2034      F2039   1.383   1_556  S
C2034      F2040   1.383       .  S
C2041      C2042   1.410   1_554  A
C2041      C2046   1.407       .  A
C2041      H2048   1.083   1_565  S
C2042      C2043   1.419       .  A
C2043      C2044   1.410   1_556  A
C2043      C2050   1.520       .  S
C2044      C2045   1.410       .  A
C2044      H2049   1.082       .  S
C2045      C2046   1.418       .  A
C2046      C2047   1.520       .  S
C2047      F2051   1.385       .  S
C2047      F2052   1.383       .  S
C2047      F2053   1.383       .  S
C2050      F2054   1.382       .  S
C2050      F2055   1.383       .  S
C2050      F2056   1.385       .  S
C2057      C2058   1.409       .  A
C2057      C2062   1.414       .  A
C2057      H2064   1.083       .  S
C2058      C2059   1.429       .  A
C2059      C2060   1.406       .  A
C2059      C2066   1.520       .  S
C2060      C2061   1.397       .  A
C2060      H2065   1.082       .  S
C2061      C2062   1.415       .  A
C2062      C2063   1.514       .  S
C2063      F2067   1.384   1_556  S
C2063      F2068   1.383       .  S
C2063      F2069   1.383   1_556  S
C2066      F2070   1.383       .  S
C2066      F2071   1.376       .  S
C2066      F2072   1.383       .  S
C2073      C2074   1.397       .  A
C2073      C2078   1.397       .  A
C2073      H2080   1.080       .  S
C2074      C2075   1.417       .  A
C2075      C2076   1.399       .  A
C2075      C2082   1.518       .  S
C2076      C2077   1.400       .  A
C2076      H2081   1.086       .  S
C2077      C2078   1.413       .  A
C2078      C2079   1.513       .  S
C2079      F2083   1.385       .  S
C2079      F2084   1.380       .  S
C2079      F2085   1.382       .  S
C2082      F2086   1.383       .  S
C2082      F2087   1.381       .  S
C2082      F2088   1.383       .  S
C2089      C2090   1.399       .  A
C2089      C2094   1.409       .  A
C2089      H2096   1.084       .  S
C2090      C2091   1.413       .  A
C2091      C2092   1.399       .  A
C2091      C2098   1.520       .  S
C2092      C2093   1.407       .  A
C2092      H2097   1.082       .  S
C2093      C2094   1.428       .  A
C2094      C2095   1.520       .  S
C2095      F2099   1.384       .  S
C2095      F2100   1.383       .  S
C2095      F2101   1.383       .  S
C2098      F2102   1.381       .  S
C2098      F2103   1.381       .  S
C2098      F2104   1.385       .  S
C2105      C2106   1.402       .  A
C2105      C2110   1.409   1_655  A
C2105      H2112   1.082       .  S
C2106      C2107   1.409       .  A
C2107      C2108   1.410   1_655  A
C2107      C2114   1.515       .  S
C2108      C2109   1.410       .  A
C2108      H2113   1.084       .  S
C2109      C2110   1.416       .  A
C2110      C2111   1.512       .  S
C2111      F2115   1.384       .  S
C2111      F2116   1.381       .  S
C2111      F2117   1.382       .  S
C2114      F2118   1.384       .  S
C2114      F2119   1.384       .  S
C2114      F2120   1.381       .  S
C2121      C2122   1.410       .  A
C2121      C2126   1.411       .  A
C2121      H2128   1.083       .  S
C2122      C2123   1.416       .  A
C2123      C2124   1.408       .  A
C2123      C2130   1.517       .  S
C2124      C2125   1.406       .  A
C2124      H2129   1.083       .  S
C2125      C2126   1.409       .  A
C2126      C2127   1.511       .  S
C2127      F2131   1.384       .  S
C2127      F2132   1.383       .  S
C2127      F2133   1.380       .  S
C2130      F2134   1.385       .  S
C2130      F2135   1.383       .  S
C2130      F2136   1.381       .  S
C2137      C2138   1.416       .  A
C2137      C2142   1.406       .  A
C2137      H2144   1.082   1_545  S
C2138      C2139   1.420       .  A
C2139      C2140   1.424       .  A
C2139      C2146   1.514       .  S
C2140      C2141   1.412       .  A
C2140      H2145   1.083       .  S
C2141      C2142   1.410       .  A
C2142      C2143   1.520       .  S
C2143      F2147   1.385   1_545  S
C2143      F2148   1.383       .  S
C2143      F2149   1.383   1_545  S
C2146      F2150   1.383       .  S
C2146      F2151   1.383       .  S
C2146      F2152   1.384       .  S
C2153      C2154   1.408       .  A
C2153      C2158   1.408       .  A
C2153      H2160   1.083       .  S
C2154      C2155   1.416   1_545  A
C2155      C2156   1.397       .  A
C2155      C2162   1.516       .  S
C2156      C2157   1.401       .  A
C2156      H2161   1.085       .  S
C2157      C2158   1.412   1_565  A
C2158      C2159   1.514   1_554  S
C2159      F2163   1.383       .  S
C2159      F2164   1.377       .  S
C2159      F2165   1.384       .  S
C2162      F2166   1.383       .  S
C2162      F2167   1.379       .  S
C2162      F2168   1.384       .  S
C2169      C2170   1.402       .  A
C2169      C2174   1.401   1_556  A
C2169      H2176   1.083       .  S
C2170      C2171   1.427   1_556  A
C2171      C2172   1.407       .  A
C2171      C2178   1.520       .  S
C2172      C2173   1.397       .  A
C2172      H2177   1.084       .  S
C2173      C2174   1.416       .  A
C2174      C2175   1.515   1_455  S
C2175      F2179   1.383   1_554  S
C2175      F2180   1.377       .  S
C2175      F2181   1.383       .  S
C2178      F2182   1.381       .  S
C2178      F2183   1.384   1_554  S
C2178      F2184   1.383       .  S
C2185      C2186   1.404       .  A
C2185      C2190   1.420       .  A
C2185      H2192   1.080       .  S
C2186      C2187   1.423       .  A
C2187      C2188   1.401       .  A
C2187      C2194   1.510       .  S
C2188      C2189   1.397       .  A
C2188      H2193   1.085       .  S
C2189      C2190   1.422       .  A
C2190      C2191   1.511       .  S
C2191      F2195   1.383       .  S
C2191      F2196   1.378       .  S
C2191      F2197   1.384       .  S
C2194      F2198   1.385       .  S
C2194      F2199   1.382       .  S
C2194      F2200   1.384       .  S
C2201      C2202   1.399       .  A
C2201      C2206   1.409       .  A
C2201      H2208   1.083       .  S
C2202      C2203   1.423       .  A
C2203      C2204   1.405       .  A
C2203      C2210   1.522       .  S
C2204      C2205   1.406       .  A
C2204      H2209   1.082       .  S
C2205      C2206   1.432       .  A
C2206      C2207   1.523       .  S
C2207      F2211   1.385       .  S
C2207      F2212   1.383       .  S
C2207      F2213   1.382       .  S
C2210      F2214   1.383       .  S
C2210      F2215   1.381       .  S
C2210      F2216   1.385       .  S
C2217      C2218   1.404       .  A
C2217      C2222   1.416       .  A
C2217      H2224   1.083       .  S
C2218      C2219   1.419       .  A
C2219      C2220   1.407       .  A
C2219      C2226   1.512       .  S
C2220      C2221   1.399       .  A
C2220      H2225   1.084       .  S
C2221      C2222   1.419       .  A
C2222      C2223   1.514       .  S
C2223      F2227   1.382       .  S
C2223      F2228   1.385       .  S
C2223      F2229   1.383       .  S
C2226      F2230   1.381       .  S
C2226      F2231   1.382       .  S
C2226      F2232   1.383       .  S
C2233      C2234   1.398       .  A
C2233      C2238   1.408       .  A
C2233      H2240   1.078       .  S
C2234      C2235   1.414       .  A
C2235      C2236   1.405       .  A
C2235      C2242   1.513       .  S
C2236      C2237   1.402       .  A
C2236      H2241   1.085       .  S
C2237      C2238   1.418       .  A
C2238      C2239   1.512       .  S
C2239      F2243   1.384       .  S
C2239      F2244   1.382       .  S
C2239      F2245   1.380       .  S
C2242      F2246   1.382       .  S
C2242      F2247   1.381       .  S
C2242      F2248   1.384       .  S
C2249      C2250   1.399       .  A
C2249      C2254   1.400       .  A
C2249      H2256   1.085       .  S
C2250      C2251   1.406       .  A
C2251      C2252   1.404       .  A
C2251      C2258   1.511       .  S
C2252      C2253   1.413       .  A
C2252      H2257   1.082       .  S
C2253      C2254   1.425       .  A
C2254      C2255   1.524       .  S
C2255      F2259   1.385       .  S
C2255      F2260   1.379       .  S
C2255      F2261   1.381       .  S
C2258      F2262   1.383       .  S
C2258      F2263   1.377       .  S
C2258      F2264   1.384       .  S
C2265      C2266   1.407       .  A
C2265      C2270   1.413       .  A
C2265      H2272   1.083       .  S
C2266      C2267   1.408       .  A
C2267      C2268   1.409       .  A
C2267      C2274   1.510       .  S
C2268      C2269   1.411       .  A
C2268      H2273   1.084       .  S
C2269      C2270   1.419       .  A
C2270      C2271   1.517       .  S
C2271      F2275   1.385       .  S
C2271      F2276   1.379       .  S
C2271      F2277   1.383       .  S
C2274      F2278   1.383       .  S
C2274      F2279   1.384       .  S
C2274      F2280   1.380       .  S
C2281      C2282   1.402       .  A
C2281      C2286   1.412       .  A
C2281      H2288   1.083       .  S
C2282      C2283   1.425       .  A
C2283      C2284   1.413       .  A
C2283      C2290   1.512       .  S
C2284      C2285   1.398       .  A
C2284      H2289   1.084       .  S
C2285      C2286   1.419       .  A
C2286      C2287   1.516       .  S
C2287      F2291   1.384       .  S
C2287      F2292   1.381       .  S
C2287      F2293   1.377       .  S
C2290      F2294   1.382       .  S
C2290      F2295   1.380       .  S
C2290      F2296   1.384       .  S
C2297      C2298   1.417       .  A
C2297      C2302   1.413       .  A
C2297      H2304   1.082       .  S
C2298      C2299   1.421       .  A
C2299      C2300   1.421   1_655  A
C2299      C2306   1.516       .  S
C2300      C2301   1.409       .  A
C2300      H2305   1.078       .  S
C2301      C2302   1.411   1_455  A
C2302      C2303   1.514   1_655  S
C2303      F2307   1.385   1_455  S
C2303      F2308   1.383       .  S
C2303      F2309   1.383       .  S
C2306      F2310   1.383       .  S
C2306      F2311   1.383       .  S
C2306      F2312   1.383       .  S
C2313      C2314   1.399       .  A
C2313      C2318   1.402       .  A
C2313      H2320   1.084       .  S
C2314      C2315   1.418       .  A
C2315      C2316   1.394       .  A
C2315      C2322   1.520       .  S
C2316      C2317   1.403       .  A
C2316      H2321   1.082       .  S
C2317      C2318   1.427       .  A
C2318      C2319   1.522       .  S
C2319      F2323   1.385       .  S
C2319      F2324   1.381       .  S
C2319      F2325   1.383       .  S
C2322      F2326   1.381       .  S
C2322      F2327   1.380       .  S
C2322      F2328   1.384       .  S
C2329      C2330   1.402       .  A
C2329      C2334   1.408       .  A
C2329      H2336   1.085       .  S
C2330      C2331   1.413       .  A
C2331      C2332   1.397       .  A
C2331      C2338   1.519       .  S
C2332      C2333   1.405       .  A
C2332      H2337   1.082       .  S
C2333      C2334   1.420       .  A
C2334      C2335   1.515       .  S
C2335      F2339   1.384       .  S
C2335      F2340   1.384       .  S
C2335      F2341   1.383       .  S
C2338      F2342   1.375       .  S
C2338      F2343   1.381       .  S
C2338      F2344   1.385       .  S
C2345      C2346   1.409   1_455  A
C2345      C2350   1.417       .  A
C2345      H2352   1.082   1_455  S
C2346      C2347   1.412       .  A
C2347      C2348   1.415   1_655  A
C2347      C2354   1.517       .  S
C2348      C2349   1.407       .  A
C2348      H2353   1.083       .  S
C2349      C2350   1.418       .  A
C2350      C2351   1.517       .  S
C2351      F2355   1.384       .  S
C2351      F2356   1.383       .  S
C2351      F2357   1.383       .  S
C2354      F2358   1.381       .  S
C2354      F2359   1.384       .  S
C2354      F2360   1.383       .  S
C2361      C2362   1.410       .  A
C2361      C2366   1.409       .  A
C2361      H2368   1.083       .  S
C2362      C2363   1.418       .  A
C2363      C2364   1.406       .  A
C2363      C2370   1.519       .  S
C2364      C2365   1.404       .  A
C2364      H2369   1.083       .  S
C2365      C2366   1.413       .  A
C2366      C2367   1.518       .  S
C2367      F2371   1.385       .  S
C2367      F2372   1.383       .  S
C2367      F2373   1.383       .  S
C2370      F2374   1.382       .  S
C2370      F2375   1.384       .  S
C2370      F2376   1.385       .  S
C2377      C2378   1.407       .  A
C2377      C2382   1.412       .  A
C2377      H2384   1.084       .  S
C2378      C2379   1.420       .  A
C2379      C2380   1.404   1_565  A
C2379      C2386   1.522       .  S
C2380      C2381   1.399       .  A
C2380      H2385   1.081       .  S
C2381      C2382   1.418   1_545  A
C2382      C2383   1.513       .  S
C2383      F2387   1.383       .  S
C2383      F2388   1.382       .  S
C2383      F2389   1.384   1_565  S
C2386      F2390   1.383       .  S
C2386      F2391   1.372       .  S
C2386      F2392   1.384   1_565  S
C2393      C2394   1.401       .  A
C2393      C2398   1.402       .  A
C2393      H2400   1.085       .  S
C2394      C2395   1.415       .  A
C2395      C2396   1.403       .  A
C2395      C2402   1.513       .  S
C2396      C2397   1.401       .  A
C2396      H2401   1.085   1_655  S
C2397      C2398   1.417       .  A
C2398      C2399   1.516       .  S
C2399      F2403   1.383       .  S
C2399      F2404   1.381       .  S
C2399      F2405   1.382       .  S
C2402      F2406   1.381       .  S
C2402      F2407   1.383   1_655  S
C2402      F2408   1.383   1_655  S
C2409      C2410   1.397       .  A
C2409      C2414   1.401       .  A
C2409      H2416   1.084       .  S
C2410      C2411   1.415       .  A
C2411      C2412   1.400       .  A
C2411      C2418   1.519       .  S
C2412      C2413   1.400       .  A
C2412      H2417   1.084       .  S
C2413      C2414   1.413       .  A
C2414      C2415   1.510       .  S
C2415      F2419   1.384       .  S
C2415      F2420   1.381       .  S
C2415      F2421   1.380       .  S
C2418      F2422   1.381       .  S
C2418      F2423   1.378       .  S
C2418      F2424   1.385       .  S
C2425      C2426   1.403       .  A
C2425      C2430   1.411       .  A
C2425      H2432   1.083       .  S
C2426      C2427   1.424       .  A
C2427      C2428   1.414       .  A
C2427      C2434   1.508       .  S
C2428      C2429   1.398       .  A
C2428      H2433   1.083       .  S
C2429      C2430   1.415       .  A
C2430      C2431   1.514       .  S
C2431      F2435   1.384       .  S
C2431      F2436   1.381       .  S
C2431      F2437   1.383       .  S
C2434      F2438   1.377       .  S
C2434      F2439   1.383       .  S
C2434      F2440   1.384       .  S
C2441      C2442   1.409       .  A
C2441      C2446   1.421       .  A
C2441      H2448   1.083       .  S
C2442      C2443   1.408       .  A
C2443      C2444   1.401       .  A
C2443      C2450   1.506       .  S
C2444      C2445   1.402       .  A
C2444      H2449   1.085       .  S
C2445      C2446   1.416       .  A
C2446      C2447   1.514       .  S
C2447      F2451   1.385       .  S
C2447      F2452   1.383       .  S
C2447      F2453   1.382       .  S
C2450      F2454   1.383       .  S
C2450      F2455   1.383       .  S
C2450      F2456   1.379       .  S
C2457      C2458   1.414       .  A
C2457      C2462   1.422       .  A
C2457      H2464   1.082       .  S
C2458      C2459   1.411       .  A
C2459      C2460   1.411       .  A
C2459      C2466   1.518       .  S
C2460      C2461   1.417       .  A
C2460      H2465   1.081       .  S
C2461      C2462   1.417       .  A
C2462      C2463   1.514       .  S
C2463      F2467   1.384       .  S
C2463      F2468   1.383       .  S
C2463      F2469   1.383       .  S
C2466      F2470   1.383       .  S
C2466      F2471   1.382       .  S
C2466      F2472   1.385       .  S
C2473      C2474   1.414       .  A
C2473      C2478   1.413       .  A
C2473      H2480   1.082       .  S
C2474      C2475   1.420       .  A
C2475      C2476   1.413       .  A
C2475      C2482   1.520       .  S
C2476      C2477   1.413       .  A
C2476      H2481   1.082       .  S
C2477      C2478   1.418       .  A
C2478      C2479   1.519       .  S
C2479      F2483   1.385       .  S
C2479      F2484   1.383       .  S
C2479      F2485   1.383       .  S
C2482      F2486   1.382       .  S
C2482      F2487   1.382       .  S
C2482      F2488   1.385       .  S
C2489      C2490   1.401       .  A
C2489      C2494   1.403       .  A
C2489      H2496   1.086       .  S
C2490      C2491   1.413       .  A
C2491      C2492   1.403       .  A
C2491      C2498   1.513       .  S
C2492      C2493   1.402       .  A
C2492      H2497   1.082       .  S
C2493      C2494   1.421       .  A
C2494      C2495   1.520       .  S
C2495      F2499   1.383       .  S
C2495      F2500   1.380       .  S
C2495      F2501   1.383       .  S
C2498      F2502   1.381       .  S
C2498      F2503   1.383       .  S
C2498      F2504   1.385       .  S
C2505      C2506   1.401       .  A
C2505      C2510   1.399       .  A
C2505      H2512   1.083       .  S
C2506      C2507   1.415       .  A
C2507      C2508   1.412       .  A
C2507      C2514   1.515       .  S
C2508      C2509   1.409       .  A
C2508      H2513   1.083       .  S
C2509      C2510   1.423       .  A
C2510      C2511   1.523       .  S
C2511      F2515   1.385       .  S
C2511      F2516   1.381       .  S
C2511      F2517   1.383       .  S
C2514      F2518   1.380       .  S
C2514      F2519   1.384       .  S
C2514      F2520   1.384       .  S
