geometry optimzed in LAMMPS
_audit_creation_date              2020-12-01 
_audit_creation_method            'lammps2cif' 
_symmetry_space_group_name_H-M    'P1' 
_symmetry_Int_Tables_number       1 
_symmetry_cell_setting            triclinic 
loop_ 
_symmetry_equiv_pos_as_xyz 
  x,y,z 
_cell_length_a                    61.14263871 
_cell_length_b                    60.56234671063438 
_cell_length_c                    38.092561634085186 
_cell_angle_alpha                 89.97506808490357 
_cell_angle_beta                  90.26355654632148 
_cell_angle_gamma                 120.5187992074055 
loop_ 
_atom_site_label 
_atom_site_type_symbol 
_atom_site_fract_x 
_atom_site_fract_y 
_atom_site_fract_z 
_atom_site_charge 
O1          O  0.83533285  0.27697693  0.17905733    -0.81400
O2          O  0.84992573  0.23491803  0.31418450    -0.66100
O3          O  0.83666055  0.27588079  0.25214623    -1.12700
C4          C  0.92558513  0.33054235  0.25784338     1.05500
O5          O  0.87150347  0.26933593  0.34649659    -0.79300
O6          O  0.87822902  0.31432624  0.32549753    -0.66900
Ni7        Ni  0.81151961  0.25944907  0.21645208     1.34900
C8          C  0.87320499  0.32743991  0.30457146     0.84200
O9          O  0.80680802  0.23067488  0.29068993    -0.79900
O10         O  0.78573126  0.24062847  0.25146726    -0.90100
C11         C  0.86400067  0.24598756  0.34038341     0.83800
O12         O  0.81485983  0.23012499  0.20755475    -0.68300
O13         O  0.92141937  0.32408557  0.29015826    -0.87600
C14         C  0.83030128  0.22369186  0.21929542     0.84600
C15         C  0.78634006  0.22857605  0.27869189     1.06200
H16         H  0.88550415  0.27102917  0.26551249     0.38000
O17         O  0.87711006  0.27923192  0.27610837    -1.10300
O18         O  0.87260497  0.32462602  0.27131826    -0.66900
Ni19       Ni  0.87206264  0.29843559  0.24111989     1.26300
O20         O  0.84395910  0.23405197  0.24633612    -0.67200
O21         O  0.90826254  0.32057678  0.23396239    -0.79500
C22         C  0.85274802  0.30038056  0.17580907     0.84000
O23         O  0.86508774  0.31408400  0.20222172    -0.66600
Ni24       Ni  0.89558520  0.29627868  0.31707818     1.27400
Ni25       Ni  0.84207551  0.25460481  0.28319820     1.26100
H26         H  0.83097912  0.28523415  0.26627335     0.38500
O27         O  0.92950262  0.17189966  0.66526745    -0.81400
O28         O  0.89185818  0.17280881  0.51541775    -0.66100
O29         O  0.92869652  0.16646159  0.59200435    -1.12700
C30         C  0.97824661  0.25697020  0.57721742     1.05500
O31         O  0.92829629  0.19309212  0.48820019    -0.79300
O32         O  0.97419155  0.21125231  0.51698976    -0.66900
Ni33       Ni  0.91098497  0.14513993  0.63120580     1.34900
C34         C  0.98493257  0.20570652  0.54106802     0.84200
O35         O  0.88689776  0.13251135  0.55008264    -0.79900
O36         O  0.89059882  0.11607675  0.60106770    -0.90100
C37         C  0.90439040  0.18338478  0.48791280     0.83800
O38         O  0.88420219  0.15241624  0.63445530    -0.68300
O39         O  0.97209588  0.25181936  0.54482345    -0.87600
C40         C  0.87634964  0.16386107  0.61477060     0.84600
C41         C  0.88157316  0.11366066  0.57010843     1.06200
H42         H  0.92271450  0.21258811  0.56619872     0.38000
O43         O  0.93201667  0.20445759  0.55871235    -1.10300
O44         O  0.97758839  0.20242300  0.57290243    -0.66900
Ni45       Ni  0.95025315  0.20297237  0.59805639     1.26300
O46         O  0.88516868  0.17171107  0.58408163    -0.67200
O47         O  0.97070957  0.23984164  0.60133506    -0.79500
C48         C  0.95288145  0.18905883  0.66715728     0.84000
O49         O  0.96587877  0.19991717  0.63993768    -0.66600
Ni50       Ni  0.94981460  0.22185524  0.51764393     1.27400
Ni51       Ni  0.90912700  0.16856409  0.55433955     1.26100
H52         H  0.93873446  0.15974106  0.58235185     0.38500
O53         O  0.88854758  0.39773258  0.98948262    -0.81400
O54         O  0.94108221  0.44226526  0.85272029    -0.66100
O55         O  0.88967933  0.39934276  0.91674828    -1.12700
C56         C  0.92982501  0.35021497  0.90757177     1.05500
O57         O  0.92758396  0.40805244  0.81918349    -0.79300
O58         O  0.89338140  0.36066428  0.84197430    -0.66900
Ni59       Ni  0.87997857  0.41394852  0.95304533     1.34900
C60         C  0.87594242  0.34743086  0.86378741     0.84200
O61         O  0.90200545  0.44472701  0.87941234    -0.79900
O62         O  0.87096865  0.43164300  0.91924388    -0.90100
C63         C  0.94152165  0.43209124  0.82394954     0.83800
O64         O  0.91181179  0.44443037  0.96121555    -0.68300
O65         O  0.93160712  0.35718801  0.87545384    -0.87600
C66         C  0.93402364  0.45253166  0.94957838     0.84600
C67         C  0.88326658  0.44535982  0.89295182     1.06200
H68         H  0.94429115  0.40783575  0.90042458     0.38000
O69         O  0.92736977  0.39881060  0.89050508    -1.10300
O70         O  0.87885520  0.35157727  0.89681296    -0.66900
Ni71       Ni  0.90462349  0.37848608  0.92630824     1.26300
O72         O  0.93819560  0.44334444  0.92201201    -0.67200
O73         O  0.92080743  0.35813574  0.93180330    -0.79500
C74         C  0.88376865  0.37478593  0.99267487     0.84000
O75         O  0.88333493  0.36166158  0.96615986    -0.66600
Ni76       Ni  0.92899394  0.38283767  0.84873387     1.27400
Ni77       Ni  0.91517620  0.42196842  0.88523124     1.26100
H78         H  0.87450024  0.38932935  0.90285830     0.38500
O79         O  0.09445143  0.49873742  0.51458079    -0.81400
O80         O  0.04755511  0.48932865  0.65738822    -0.66100
O81         O  0.09602766  0.50003864  0.58766033    -1.12700
C82         C  0.05591703  0.40968449  0.59663767     1.05500
O83         O  0.06366403  0.47006441  0.68796019    -0.79300
O84         O  0.09553619  0.45597495  0.66120118    -0.66900
Ni85       Ni  0.10286312  0.52402108  0.55087677     1.34900
C86         C  0.11222725  0.46113411  0.63795679     0.84200
O87         O  0.08473536  0.53162830  0.62854571    -0.79900
O88         O  0.11196703  0.55142809  0.58444522    -0.90100
C89         C  0.04938937  0.47963601  0.68590366     0.83800
O90         O  0.06974837  0.51946898  0.54475367    -0.68300
O91         O  0.05502663  0.41437645  0.62922595    -0.87600
C92         C  0.04849683  0.50497450  0.55924042     0.84600
C93         C  0.10201338  0.55175807  0.61372260     1.06200
H94         H  0.04263420  0.45201603  0.60739592     0.38000
O95         O  0.05987632  0.46051326  0.61615997    -1.10300
O96         O  0.10842906  0.46356643  0.60555190    -0.66900
Ni97       Ni  0.08141058  0.46390833  0.57854884     1.26300
O98         O  0.04660918  0.49322148  0.58794243    -0.67200
O99         O  0.06516953  0.42715787  0.57287517    -0.79500
C100        C  0.10021007  0.48136558  0.51129769     0.84000
O101        O  0.10155681  0.46910515  0.53762618    -0.66600
Ni102      Ni  0.05989324  0.44296606  0.65729486     1.27400
Ni103      Ni  0.07173758  0.49586656  0.62188591     1.26100
H104        H  0.11195512  0.50610145  0.59987220     0.38500
O105        O  0.05344847  0.22877912  0.85140739    -0.81400
O106        O  0.09789332  0.29224827  0.98042198    -0.66100
O107        O  0.05488669  0.23560269  0.92385698    -1.12700
C108        C  0.00532583  0.27453400  0.92339918     1.05500
O109        O  0.06524173  0.28220044  0.01497645    -0.79300
O110        O  0.02013421  0.24218159  0.99404480    -0.66900
Ni111      Ni  0.06959986  0.22310745  0.89141196     1.34900
C112        C  0.00528537  0.22423993  0.97354822     0.84200
O113        O  0.09953281  0.25093985  0.96331582    -0.79900
O114        O  0.08656021  0.21623349  0.92956681    -0.90100
C115        C  0.08886871  0.29537532  0.00831170     0.83800
O116        O  0.10025016  0.25458791  0.88055757    -0.68300
O117        O  0.01051761  0.27551321  0.95617194    -0.87600
C118        C  0.10817214  0.27775593  0.88903095     0.84600
C119        C  0.09930024  0.23039034  0.95557800     1.06200
H120        H  0.06339814  0.29215692  0.93217760     0.38000
O121        O  0.05461058  0.27556934  0.94341728    -1.10300
O122        O  0.00748368  0.22638366  0.94026786    -0.66900
Ni123      Ni  0.03469321  0.25035204  0.90978185     1.26300
O124        O  0.09834724  0.28371791  0.91393481    -0.67200
O125        O  0.01500689  0.26665881  0.90005649    -0.79500
C126        C  0.03106636  0.22502881  0.84706510     0.84000
O127        O  0.01826775  0.22646270  0.87239931    -0.66600
Ni128      Ni  0.03821568  0.27799679  0.98399564     1.27400
Ni129      Ni  0.07732901  0.26362820  0.95239944     1.26100
H130        H  0.04491525  0.22144636  0.93946219     0.38500
O131        O  0.16404202  0.44744690  0.32757451    -0.81400
O132        O  0.14829930  0.38922362  0.19560767    -0.66100
O133        O  0.16358738  0.44497730  0.25474749    -1.12700
C134        C  0.07604993  0.41257202  0.24553551     1.05500
O135        O  0.12772656  0.40059491  0.15887579    -0.79300
O136        O  0.12762965  0.44261569  0.17936552    -0.66900
Ni137      Ni  0.18797116  0.45278923  0.29124196     1.34900
C138        C  0.13188264  0.46109576  0.19926814     0.84200
O139        O  0.19150563  0.42733036  0.21857939    -0.79900
O140        O  0.21377865  0.45900045  0.25695322    -0.90100
C141        C  0.13739918  0.38695732  0.16668485     0.83800
O142        O  0.18235407  0.41903888  0.30104577    -0.68300
O143        O  0.08156044  0.41254564  0.21316715    -0.87600
C144        C  0.16554291  0.39725512  0.28934290     0.84600
C145        C  0.21234441  0.44585552  0.22989952     1.06200
H146        H  0.11297935  0.39097976  0.24055420     0.38000
O147        O  0.12247658  0.40776913  0.23003995    -1.10300
O148        O  0.12970671  0.45879024  0.23266296    -0.66900
Ni149      Ni  0.12840033  0.43276170  0.26437583     1.26300
O150        O  0.15257038  0.39484884  0.26218547    -0.67200
O151        O  0.09246636  0.41897309  0.27036875    -0.79500
C152        C  0.14702094  0.45361350  0.33006668     0.84000
O153        O  0.13577937  0.45576877  0.30306052    -0.66600
Ni154      Ni  0.10587325  0.40724194  0.18792523     1.27400
Ni155      Ni  0.15686718  0.41738980  0.22477536     1.26100
H156        H  0.17028283  0.46018164  0.24041697     0.38500
O157        O  0.12500780  0.74547526  0.65701595    -0.81400
O158        O  0.12733265  0.68579422  0.78886020    -0.66100
O159        O  0.11846255  0.72954546  0.72681207    -1.12700
C160        C  0.20861603  0.77480237  0.72252279     1.05500
O161        O  0.15918255  0.71853041  0.81744744    -0.79300
O162        O  0.18148202  0.76855557  0.79861757    -0.66900
Ni163      Ni  0.10012891  0.71671241  0.68418848     1.34900
C164        C  0.16775924  0.77792576  0.78992952     0.84200
O165        O  0.08592118  0.68627045  0.76347796    -0.79900
O166        O  0.07313809  0.68746478  0.70822058    -0.90100
C167        C  0.14053591  0.69545829  0.81647494     0.83800
O168        O  0.11575015  0.69782355  0.66967305    -0.68300
O169        O  0.20894327  0.76084931  0.74752850    -0.87600
C170        C  0.11921658  0.68217845  0.68747502     0.84600
C171        C  0.06858715  0.67916272  0.73984399     1.06200
H172        H  0.16214228  0.71904587  0.72879073     0.38000
O173        O  0.15750441  0.72775724  0.74580015    -1.10300
O174        O  0.15406342  0.77092452  0.76232612    -0.66900
Ni175      Ni  0.15356134  0.75259834  0.72092141     1.26300
O176        O  0.11927000  0.68229282  0.72087156    -0.67200
O177        O  0.18877291  0.77506783  0.71335614    -0.79500
C178        C  0.13656883  0.76890504  0.66640751     0.84000
O179        O  0.14746041  0.77581203  0.69584126    -0.66600
Ni180      Ni  0.18304065  0.73949922  0.78141531     1.27400
Ni181      Ni  0.12202605  0.70647662  0.75627864     1.26100
H182        H  0.11090053  0.73760869  0.73998063     0.38500
O183        O  0.06399182  0.80189417  0.51830499    -0.81400
O184        O  0.01640105  0.80733768  0.37354283    -0.66100
O185        O  0.05118482  0.79481539  0.44672345    -1.12700
C186        C  0.10409322  0.88553987  0.44584484     1.05500
O187        O  0.05341107  0.83495760  0.34890415    -0.79300
O188        O  0.10079457  0.85526360  0.37541639    -0.66900
Ni189      Ni  0.03528344  0.77837600  0.48922278     1.34900
C190        C  0.10659954  0.83933088  0.38750501     0.84200
O191        O  0.00904806  0.76408987  0.40684227    -0.79900
O192        O  0.00598776  0.75238881  0.46368100    -0.90100
C193        C  0.02971629  0.81866071  0.34652960     0.83800
O194        O  0.01977125  0.79839300  0.49764437    -0.68300
O195        O  0.09226891  0.88653100  0.41867697    -0.87600
C196        C  0.00628159  0.80306845  0.47699980     0.84600
C197        C  0.99941932  0.74729477  0.43134260     1.06200
H198        H  0.04773595  0.84277485  0.43567718     0.38000
O199        O  0.05588610  0.83587999  0.42138863    -1.10300
O200        O  0.09552576  0.82553617  0.41410508    -0.66900
Ni201      Ni  0.07673387  0.82962418  0.45138066     1.26300
O202        O  0.00760500  0.80192029  0.44360557    -0.67200
O203        O  0.10179686  0.86477813  0.45738477    -0.79500
C204        C  0.08730101  0.81120950  0.51053869     0.84000
O205        O  0.09589904  0.82140308  0.48122050    -0.66600
Ni206      Ni  0.07239188  0.85993998  0.38464581     1.27400
Ni207      Ni  0.03204054  0.80030852  0.41232717     1.26100
H208        H  0.05816245  0.78521313  0.43621341     0.38500
O209        O  0.85799592  0.60445899  0.84016984    -0.81400
O210        O  0.86128263  0.56116800  0.69286656    -0.66100
O211        O  0.86722866  0.60443114  0.76911332    -1.12700
C212        C  0.77640311  0.55699797  0.76407940     1.05500
O213        O  0.83096594  0.56599897  0.66812777    -0.79300
O214        O  0.80641550  0.58748308  0.69654611    -0.66900
Ni215      Ni  0.88432570  0.60530607  0.81125575     1.34900
C216        C  0.81997435  0.60982693  0.70917599     0.84200
O217        O  0.90152967  0.59953120  0.72793113    -0.79900
O218        O  0.91244400  0.60751577  0.78517690    -0.90100
C219        C  0.84936697  0.56190609  0.66583087     0.83800
O220        O  0.86939370  0.56904010  0.81676364    -0.68300
O221        O  0.77824837  0.54553400  0.73707001    -0.87600
C222        C  0.86770977  0.55299763  0.79389244     0.84600
C223        C  0.91797047  0.60690437  0.75290465     1.06200
H224        H  0.82417502  0.55043291  0.75482342     0.38000
O225        O  0.82926385  0.56583164  0.74142986    -1.10300
O226        O  0.83301917  0.61411775  0.73722468    -0.66900
Ni227      Ni  0.83163599  0.59095144  0.77351796     1.26300
O228        O  0.86725325  0.55682829  0.76110188    -0.67200
O229        O  0.79549039  0.57618717  0.77854527    -0.79500
C230        C  0.84884239  0.61890224  0.83458221     0.84000
O231        O  0.83700850  0.61691404  0.80629095    -0.66600
Ni232      Ni  0.80549620  0.55593026  0.70399160     1.27400
Ni233      Ni  0.86515128  0.58219145  0.73269337     1.26100
H234        H  0.87520555  0.62168203  0.75997785     0.38500
O235        O  0.92252056  0.72983436  0.98845865    -0.81400
O236        O  0.96753694  0.77081957  0.13847773    -0.66100
O237        O  0.93149808  0.72928596  0.05965024    -1.12700
C238        C  0.88630322  0.77455401  0.06837901     1.05500
O239        O  0.93094194  0.76218092  0.16207612    -0.79300
O240        O  0.88521702  0.74168715  0.13275548    -0.66900
Ni241      Ni  0.94820984  0.72932393  0.01782122     1.34900
C242        C  0.87746194  0.72009738  0.11835027     0.84200
O243        O  0.97042370  0.73373903  0.10153383    -0.79900
O244        O  0.97424855  0.72712543  0.04417587    -0.90100
C245        C  0.95420353  0.76897674  0.16517862     0.83800
O246        O  0.96899080  0.76577804  0.01372242    -0.68300
O247        O  0.89941716  0.78522657  0.09596187    -0.87600
C248        C  0.98279852  0.78194657  0.03703233     0.84600
C249        C  0.97961677  0.72665829  0.07665022     1.06200
H250        H  0.94126928  0.78254423  0.07734952     0.38000
O251        O  0.93103645  0.76651104  0.08948527    -1.10300
O252        O  0.88719935  0.71761009  0.09026794    -0.66900
Ni253      Ni  0.90898589  0.74231635  0.05581894     1.26300
O254        O  0.97862566  0.77739376  0.06980489    -0.67200
O255        O  0.88696375  0.75644732  0.05203414    -0.79500
C256        C  0.89880250  0.71537588  0.99372520     0.84000
O257        O  0.88885023  0.71719442  0.02180552    -0.66600
Ni258      Ni  0.91595026  0.77378065  0.12783754     1.27400
Ni259      Ni  0.95112780  0.75073499  0.09728045     1.26100
H260        H  0.92228607  0.71182797  0.06806263     0.38500
O261        O  0.06473982  0.59956830  0.17996692    -0.81400
O262        O  0.10861172  0.64748722  0.03596959    -0.66100
O263        O  0.06382224  0.60902860  0.10899189    -1.12700
C264        C  0.11021807  0.56594978  0.11103927     1.05500
O265        O  0.10806425  0.61387145  0.01090370    -0.79300
O266        O  0.08336034  0.56603111  0.03826430    -0.66900
Ni267      Ni  0.06279755  0.62487406  0.15117815     1.34900
C268        C  0.06067862  0.55752678  0.04837815     0.84200
O269        O  0.06878158  0.64798195  0.06764596    -0.79900
O270        O  0.05953024  0.65025417  0.12455419    -0.90100
C271        C  0.11173737  0.63659427  0.00954189     0.83800
O272        O  0.09851167  0.64766478  0.15783474    -0.68300
O273        O  0.12306742  0.57900961  0.08455864    -0.87600
C274        C  0.11463129  0.66207454  0.13524404     0.84600
C275        C  0.05989691  0.65593846  0.09199472     1.06200
H276        H  0.11735156  0.62052177  0.09907476     0.38000
O277        O  0.10282865  0.61016926  0.08423268    -1.10300
O278        O  0.05530984  0.56595010  0.07576228    -0.66900
Ni279      Ni  0.07654809  0.58669701  0.11418887     1.26300
O280        O  0.11100004  0.65745419  0.10256638    -0.67200
O281        O  0.08978931  0.56470213  0.12057203    -0.79500
C282        C  0.05052851  0.57554268  0.17504177     0.84000
O283        O  0.05010543  0.56565536  0.14559684    -0.66600
Ni284      Ni  0.11476715  0.59666559  0.04892908     1.27400
Ni285      Ni  0.08655385  0.62949638  0.07380043     1.26100
H286        H  0.04682533  0.59981854  0.09922686     0.38500
O287        O  0.93451222  0.54693385  0.31056514    -0.81400
O288        O  0.88171381  0.53403693  0.45740926    -0.66100
O289        O  0.92935913  0.54900259  0.38400036    -1.12700
C290        C  0.88972062  0.45803845  0.37627939     1.05500
O291        O  0.88809662  0.50371843  0.47943760    -0.79300
O292        O  0.91709906  0.48717525  0.45076448    -0.66900
Ni293      Ni  0.93075471  0.56871720  0.34435834     1.34900
C294        C  0.93884591  0.50254384  0.43814598     0.84200
O295        O  0.91897024  0.57813874  0.42918642    -0.79900
O296        O  0.92823673  0.59323044  0.37398509    -0.90100
C297        C  0.88217567  0.52094025  0.48326497     0.83800
O298        O  0.89535854  0.55023013  0.33520240    -0.68300
O299        O  0.87823537  0.45632961  0.40497301    -0.87600
C300        C  0.87698658  0.54399052  0.35589327     0.84600
C301        C  0.92632026  0.59630789  0.40682444     1.06200
H302        H  0.87676582  0.50126544  0.39245169     0.38000
O303        O  0.89201093  0.50713905  0.40631649    -1.10300
O304        O  0.94169848  0.51526125  0.41016062    -0.66900
Ni305      Ni  0.91859786  0.51425319  0.37449648     1.26300
O306        O  0.87917654  0.54292791  0.38912486    -0.67200
O307        O  0.90690178  0.47924162  0.36375724    -0.79500
C308        C  0.94582209  0.53428349  0.31397583     0.84000
O309        O  0.94519260  0.52319937  0.34232796    -0.66600
Ni310      Ni  0.88374037  0.48125980  0.44085426     1.27400
Ni311      Ni  0.90479554  0.54229925  0.41918120     1.26100
H312        H  0.94599765  0.55736542  0.39481586     0.38500
O313        O  0.71239649  0.56059672  0.19113010    -0.81400
O314        O  0.75738653  0.61244976  0.33526363    -0.66100
O315        O  0.71595556  0.56394460  0.26555430    -1.12700
C316        C  0.67166700  0.60880453  0.27336568     1.05500
O317        O  0.72293479  0.60079056  0.36628426    -0.79300
O318        O  0.67698214  0.56850151  0.33913118    -0.66900
Ni319      Ni  0.73111752  0.55510059  0.22818277     1.34900
C320        C  0.66423651  0.55208813  0.31564593     0.84200
O321        O  0.75707086  0.57225073  0.30827259    -0.79900
O322        O  0.75104311  0.54776227  0.26106431    -0.90100
C323        C  0.74696755  0.61296100  0.36356723     0.83800
O324        O  0.75901628  0.58869316  0.21953889    -0.68300
O325        O  0.67659198  0.60913754  0.30614364    -0.87600
C326        C  0.76883372  0.60974032  0.23629965     0.84600
C327        C  0.76039143  0.55611640  0.29157303     1.06200
H328        H  0.72749278  0.62020350  0.28484206     0.38000
O329        O  0.71723400  0.60294111  0.29363349    -1.10300
O330        O  0.66952423  0.55610125  0.28325173    -0.66900
Ni331      Ni  0.69760304  0.58138803  0.25617761     1.26300
O332        O  0.76171937  0.61170495  0.26694727    -0.67200
O333        O  0.68001358  0.59986036  0.24984049    -0.79500
C334        C  0.69036105  0.55804350  0.18995065     0.84000
O335        O  0.67978462  0.56043799  0.21705105    -0.66600
Ni336      Ni  0.70018539  0.60438462  0.33453126     1.27400
Ni337      Ni  0.73753996  0.58798664  0.30032548     1.26100
H338        H  0.70489623  0.54808632  0.27760963     0.38500
O339        O  0.83084367  0.78912618  0.65801337    -0.81400
O340        O  0.81642298  0.72623690  0.52540732    -0.66100
O341        O  0.82864635  0.78158374  0.58472629    -1.12700
C342        C  0.73973698  0.74170641  0.57825847     1.05500
O343        O  0.79602325  0.73838309  0.48960206    -0.79300
O344        O  0.78701623  0.77580102  0.51010504    -0.66900
Ni345      Ni  0.85417108  0.79311924  0.62045902     1.34900
C346        C  0.79079526  0.79359179  0.53119728     0.84200
O347        O  0.85863304  0.76639091  0.54802587    -0.79900
O348        O  0.88000332  0.79883260  0.58566953    -0.90100
C349        C  0.80621170  0.72496446  0.49600150     0.83800
O350        O  0.84995714  0.76060390  0.63323932    -0.68300
O351        O  0.74424680  0.73986253  0.54588319    -0.87600
C352        C  0.83549776  0.73782313  0.62232934     0.84600
C353        C  0.87907675  0.78571827  0.55871817     1.06200
H354        H  0.78055377  0.72543758  0.57235178     0.38000
O355        O  0.78884967  0.74217389  0.56143869    -1.10300
O356        O  0.79144897  0.79118364  0.56426021    -0.66900
Ni357      Ni  0.79318670  0.76689161  0.59521678     1.26300
O358        O  0.82262980  0.73274754  0.59399212    -0.67200
O359        O  0.75705577  0.75069391  0.60213854    -0.79500
C360        C  0.81223269  0.79314653  0.65869955     0.84000
O361        O  0.79911788  0.79084588  0.63152649    -0.66600
Ni362      Ni  0.77113579  0.73990180  0.51930610     1.27400
Ni363      Ni  0.82366616  0.75398793  0.55546334     1.26100
H364        H  0.83377468  0.79617668  0.56957123     0.38500
O365        O  0.76205262  0.82325877  0.85128917    -0.81400
O366        O  0.71303538  0.82019716  0.99180614    -0.66100
O367        O  0.76218440  0.82760570  0.92461112    -1.12700
C368        C  0.72657435  0.74009724  0.94322235     1.05500
O369        O  0.72781999  0.80200094  0.02741545    -0.79300
O370        O  0.76509873  0.79423624  0.00178717    -0.66900
Ni371      Ni  0.76988955  0.84989428  0.88542367     1.34900
C372        C  0.77969973  0.79421566  0.97823242     0.84200
O373        O  0.75109909  0.86107427  0.96081339    -0.79900
O374        O  0.77880024  0.87848346  0.91642045    -0.90100
C375        C  0.71353072  0.81127760  0.02169713     0.83800
O376        O  0.73701623  0.84551709  0.87777140    -0.68300
O377        O  0.72842200  0.74761174  0.97507470    -0.87600
C378        C  0.71573479  0.83260852  0.89297817     0.84600
C379        C  0.76865934  0.88023420  0.94472078     1.06200
H380        H  0.70816940  0.78031226  0.94816105     0.38000
O381        O  0.72578558  0.78964166  0.95581596    -1.10300
O382        O  0.77363268  0.79156596  0.94596632    -0.66900
Ni383      Ni  0.74698592  0.79128471  0.91850188     1.26300
O384        O  0.71326807  0.82147899  0.92238824    -0.67200
O385        O  0.73083237  0.75471907  0.91664187    -0.79500
C386        C  0.76918220  0.80681546  0.85149041     0.84000
O387        O  0.76761578  0.79428244  0.87907172    -0.66600
Ni388      Ni  0.72874370  0.77578403  0.99924698     1.27400
Ni389      Ni  0.73780761  0.82513304  0.95772365     1.26100
H390        H  0.77798977  0.83392416  0.93722800     0.38500
O391        O  0.54499177  0.72282224  0.32638770    -0.81400
O392        O  0.60207540  0.77210019  0.18531422    -0.66100
O393        O  0.55188436  0.72907337  0.25245122    -1.12700
C394        C  0.59765380  0.68509739  0.24696623     1.05500
O395        O  0.59026832  0.73710595  0.15452972    -0.79300
O396        O  0.55970928  0.68950370  0.17893376    -0.66900
Ni397      Ni  0.54202578  0.74347170  0.28980421     1.34900
C398        C  0.54249395  0.67663694  0.20112620     0.84200
O399        O  0.56154455  0.77211885  0.21103511    -0.79900
O400        O  0.53713506  0.76560565  0.25799768    -0.90100
C401        C  0.60315261  0.76133619  0.15735657     0.83800
O402        O  0.57521738  0.77029224  0.30154483    -0.68300
O403        O  0.59994920  0.69154425  0.21458724    -0.87600
C404        C  0.59642064  0.78111069  0.28586771     0.84600
C405        C  0.54608234  0.77601565  0.22832329     1.06200
H406        H  0.60800120  0.74108630  0.23690983     0.38000
O407        O  0.59125470  0.73086284  0.22675067    -1.10300
O408        O  0.54482069  0.68248560  0.23344871    -0.66900
Ni409      Ni  0.56886919  0.71018523  0.26256910     1.26300
O410        O  0.59927476  0.77544973  0.25459423    -0.67200
O411        O  0.58705401  0.69218953  0.26975954    -0.79500
C412        C  0.54242704  0.70059100  0.32672307     0.84000
O413        O  0.54676125  0.69102600  0.29993178    -0.66600
Ni414      Ni  0.59461127  0.71466110  0.18596384     1.27400
Ni415      Ni  0.57674757  0.75172013  0.21926387     1.26100
H416        H  0.53653823  0.71813725  0.23933214     0.38500
O417        O  0.49718755  0.61707493  0.51983276    -0.81400
O418        O  0.51228372  0.56767053  0.65115461    -0.66100
O419        O  0.50018033  0.61107376  0.59279741    -1.12700
C420        C  0.58915323  0.66172972  0.59746271     1.05500
O421        O  0.53394821  0.60060571  0.68661010    -0.79300
O422        O  0.54271560  0.64814871  0.66670931    -0.66900
Ni423      Ni  0.47433959  0.59700753  0.55744954     1.34900
C424        C  0.53938546  0.66208206  0.64490984     0.84200
O425        O  0.46968676  0.56554015  0.63075049    -0.79900
O426        O  0.44876200  0.57592100  0.59187585    -0.90100
C427        C  0.52462312  0.57694721  0.67929602     0.83800
O428        O  0.47813467  0.56885939  0.54388072    -0.68300
O429        O  0.58482208  0.65562599  0.62995691    -0.87600
C430        C  0.49151384  0.55972448  0.55502171     0.84600
C431        C  0.44937023  0.56375497  0.61896925     1.06200
H432        H  0.54776055  0.60303580  0.60397350     0.38000
O433        O  0.53987282  0.61164312  0.61496823    -1.10300
O434        O  0.53835797  0.65817511  0.61211820    -0.66900
Ni435      Ni  0.53564076  0.63201057  0.58128537     1.26300
O436        O  0.50443482  0.56727746  0.58340204    -0.67200
O437        O  0.57175458  0.65234741  0.57369425    -0.79500
C438        C  0.51556347  0.64023265  0.51929515     0.84000
O439        O  0.52994925  0.65063391  0.54567430    -0.66600
Ni440      Ni  0.55827339  0.62800649  0.65683073     1.27400
Ni441      Ni  0.50487046  0.58828012  0.62196593     1.26100
H442        H  0.49554834  0.62073434  0.60809976     0.38500
O443        O  0.61099304  0.51362458  0.99622264    -0.81400
O444        O  0.55918703  0.50794722  0.85865531    -0.66100
O445        O  0.60453464  0.50453721  0.92381924    -1.12700
C446        C  0.65298622  0.59193996  0.89638853     1.05500
O447        O  0.59065139  0.52379832  0.82137873    -0.79300
O448        O  0.63821937  0.53636509  0.84194655    -0.66900
Ni449      Ni  0.59127043  0.48470710  0.96550931     1.34900
C450        C  0.65371961  0.53707315  0.86480691     0.84200
O451        O  0.55786443  0.46894070  0.89284029    -0.79900
O452        O  0.57048897  0.45416703  0.93796191    -0.90100
C453        C  0.56796425  0.51737833  0.82886676     0.83800
O454        O  0.56253588  0.48868264  0.97315868    -0.68300
O455        O  0.64624108  0.58289840  0.86529983    -0.87600
C456        C  0.55394424  0.50099267  0.95689461     0.84600
C457        C  0.55681739  0.45070124  0.91071946     1.06200
H458        H  0.59635536  0.54993268  0.89715034     0.38000
O459        O  0.60439336  0.54051989  0.88962155    -1.10300
O460        O  0.65129342  0.54012023  0.89731911    -0.66900
Ni461      Ni  0.62584877  0.54126427  0.92600441     1.26300
O462        O  0.56201120  0.51082544  0.92681197    -0.67200
O463        O  0.64576625  0.57809966  0.92425643    -0.79500
C464        C  0.63450281  0.53050042  0.99451626     0.84000
O465        O  0.64504013  0.54063483  0.96548441    -0.66600
Ni466      Ni  0.61847532  0.55269214  0.84459563     1.27400
Ni467      Ni  0.58089708  0.50489101  0.89153025     1.26100
H468        H  0.61354256  0.49759868  0.91162994     0.38500
O469        O  0.46130068  0.40501495  0.33049046    -0.81400
O470        O  0.45797672  0.35178559  0.47165834    -0.66100
O471        O  0.45242953  0.39348330  0.40186973    -1.12700
C472        C  0.54295946  0.43922573  0.40847141     1.05500
O473        O  0.48803369  0.38520079  0.50092527    -0.79300
O474        O  0.51043476  0.43355549  0.47824717    -0.66900
Ni475      Ni  0.43500024  0.37860358  0.35904154     1.34900
C476        C  0.49821363  0.44352263  0.46561792     0.84200
O477        O  0.41818040  0.35144116  0.44030835    -0.79900
O478        O  0.40667940  0.35131541  0.38402823    -0.90100
C479        C  0.46990446  0.36203841  0.49987536     0.83800
O480        O  0.44962604  0.35792143  0.35005070    -0.68300
O481        O  0.54110873  0.42554430  0.43505072    -0.87600
C482        C  0.45366630  0.34409999  0.37093180     0.84600
C483        C  0.40139893  0.34377120  0.41589293     1.06200
H484        H  0.49567869  0.38303843  0.41342632     0.38000
O485        O  0.49027444  0.39245300  0.42793300    -1.10300
O486        O  0.48693677  0.43701443  0.43587917    -0.66900
Ni487      Ni  0.48796534  0.41627910  0.39786134     1.26300
O488        O  0.45348280  0.34636748  0.40402363    -0.67200
O489        O  0.52391056  0.43841108  0.39336258    -0.79500
C490        C  0.47300840  0.42897711  0.33658481     0.84000
O491        O  0.48316502  0.43789592  0.36624524    -0.66600
Ni492      Ni  0.51351455  0.40481126  0.46626878     1.27400
Ni493      Ni  0.45443886  0.37157101  0.43564053     1.26100
H494        H  0.44461860  0.40223418  0.41258778     0.38500
O495        O  0.39967075  0.47314860  0.19937370    -0.81400
O496        O  0.34752135  0.46011611  0.05396673    -0.66100
O497        O  0.38859741  0.45821098  0.12904442    -1.12700
C498        C  0.43646740  0.54846019  0.10942140     1.05500
O499        O  0.38245928  0.48475367  0.02367487    -0.79300
O500        O  0.43084283  0.50847124  0.04693188    -0.66900
Ni501      Ni  0.37492938  0.44366270  0.17345168     1.34900
C502        C  0.44047510  0.49799838  0.06522738     0.84200
O503        O  0.34470802  0.42096724  0.09429345    -0.79900
O504        O  0.34917868  0.41304073  0.15097024    -0.90100
C505        C  0.35841837  0.47050436  0.02506159     0.83800
O506        O  0.35283421  0.45668986  0.17843768    -0.68300
O507        O  0.42447487  0.54456470  0.08036396    -0.87600
C508        C  0.34039534  0.46180273  0.15666036     0.84600
C509        C  0.33922026  0.40564273  0.12050817     1.06200
H510        H  0.38042383  0.50220205  0.10660832     0.38000
O511        O  0.38919755  0.49464950  0.09531025    -1.10300
O512        O  0.43307106  0.48979002  0.09617762    -0.66900
Ni513      Ni  0.41183433  0.49418022  0.12931549     1.26300
O514        O  0.34309412  0.46155714  0.12352172    -0.67200
O515        O  0.43406965  0.53050684  0.12946646    -0.79500
C516        C  0.42336222  0.48356853  0.19479596     0.84000
O517        O  0.43271624  0.49167260  0.16473477    -0.66600
Ni518      Ni  0.40299935  0.51390766  0.05348066     1.27400
Ni519      Ni  0.36660707  0.45807891  0.09317487     1.26100
H520        H  0.39694876  0.44948035  0.12003974     0.38500
O521        O  0.19571942  0.27301884  0.52557317    -0.81400
O522        O  0.19287030  0.22513408  0.37642405    -0.66100
O523        O  0.20075839  0.26932648  0.45315430    -1.12700
C524        C  0.10997609  0.22605066  0.44706346     1.05500
O525        O  0.16497952  0.23329905  0.35116826    -0.79300
O526        O  0.14516008  0.25944474  0.37929487    -0.66900
Ni527      Ni  0.21971941  0.27159908  0.49407426     1.34900
C528        C  0.15801460  0.28012110  0.39643359     0.84200
O529        O  0.23362375  0.26279828  0.41028373    -0.79900
O530        O  0.24633449  0.27180054  0.46655056    -0.90100
C531        C  0.18212499  0.22737438  0.34901630     0.83800
O532        O  0.20312067  0.23563764  0.50111491    -0.68300
O533        O  0.11171584  0.21731864  0.41735119    -0.87600
C534        C  0.19853466  0.21784272  0.47952984     0.84600
C535        C  0.25082571  0.27069214  0.43403320     1.06200
H536        H  0.15550710  0.21533754  0.43650229     0.38000
O537        O  0.16178676  0.23160186  0.42480333    -1.10300
O538        O  0.16756967  0.28091315  0.42626780    -0.66900
Ni539      Ni  0.16525483  0.25603815  0.45925482     1.26300
O540        O  0.19813293  0.22054714  0.44624421    -0.67200
O541        O  0.12927343  0.24190877  0.46512981    -0.79500
C542        C  0.18465550  0.28565618  0.51998104     0.84000
O543        O  0.17107086  0.28156089  0.49295799    -0.66600
Ni544      Ni  0.13941700  0.22559284  0.38600982     1.27400
Ni545      Ni  0.19755526  0.24652793  0.41643187     1.26100
H546        H  0.20856251  0.28638967  0.44340855     0.38500
O547        O  0.25564216  0.39973436  0.66551009    -0.81400
O548        O  0.31183779  0.45786039  0.80189216    -0.66100
O549        O  0.26837256  0.40666018  0.73644144    -1.12700
C550        C  0.22325120  0.45205928  0.73688095     1.05500
O551        O  0.27970028  0.45589714  0.83144611    -0.79300
O552        O  0.23102576  0.42693574  0.81099308    -0.66900
Ni553      Ni  0.28118532  0.39965781  0.69520887     1.34900
C554        C  0.22032021  0.40435634  0.79855348     0.84200
O555        O  0.31097969  0.41632000  0.77501077    -0.79900
O556        O  0.30729635  0.39833844  0.72191997    -0.90100
C557        C  0.30208254  0.45930006  0.83057984     0.83800
O558        O  0.30387289  0.43412372  0.68163068    -0.68300
O559        O  0.23619399  0.46385323  0.76423741    -0.87600
C560        C  0.31823509  0.45400859  0.69948892     0.84600
C561        C  0.31650465  0.40392510  0.75302177     1.06200
H562        H  0.27978452  0.46206930  0.74274446     0.38000
O563        O  0.27054178  0.44750343  0.75804411    -1.10300
O564        O  0.22561538  0.39929783  0.76838090    -0.66900
Ni565      Ni  0.24620906  0.41975873  0.72951285     1.26300
O566        O  0.31595067  0.45515239  0.73266068    -0.67200
O567        O  0.22480839  0.43405519  0.72197166    -0.79500
C568        C  0.23209219  0.38701180  0.67231056     0.84000
O569        O  0.22380926  0.39129369  0.70038608    -0.66600
Ni570      Ni  0.25851448  0.45921406  0.79594375     1.27400
Ni571      Ni  0.29137062  0.43272330  0.76752777     1.26100
H572        H  0.25960769  0.39083866  0.74952058     0.38500
O573        O  0.25059841  0.19343024  0.98616514    -0.81400
O574        O  0.21745864  0.20200288  0.13944573    -0.66100
O575        O  0.25484965  0.20618550  0.05720832    -1.12700
C576        C  0.21513933  0.11542329  0.07264299     1.05500
O577        O  0.22927981  0.17622100  0.16347868    -0.79300
O578        O  0.25118649  0.15235811  0.13351342    -0.66900
Ni579      Ni  0.25127888  0.22015961  0.01459532     1.34900
C580        C  0.27107834  0.16577248  0.11560696     0.84200
O581        O  0.25070493  0.24180454  0.09748132    -0.79900
O582        O  0.25274924  0.24879684  0.03914852    -0.90100
C583        C  0.22151354  0.19204845  0.16647467     0.83800
O584        O  0.21531409  0.20139076  0.01423032    -0.68300
O585        O  0.20656372  0.11802694  0.10194872    -0.87600
C586        C  0.20014293  0.19967683  0.03798425     0.84600
C587        C  0.25556084  0.25667437  0.07094091     1.06200
H588        H  0.20428558  0.16101691  0.08151464     0.38000
O589        O  0.22103487  0.16841302  0.09177398    -1.10300
O590        O  0.27071800  0.17634579  0.08698854    -0.66900
Ni591      Ni  0.24337472  0.17055354  0.05583856     1.26300
O592        O  0.20624423  0.20271363  0.07055568    -0.67200
O593        O  0.23087305  0.13439119  0.05411198    -0.79500
C594        C  0.26509930  0.18433341  0.99053696     0.84000
O595        O  0.26619463  0.17500659  0.01963509    -0.66600
Ni596      Ni  0.21788080  0.14787336  0.13145473     1.27400
Ni597      Ni  0.23515789  0.20490178  0.09641519     1.26100
H598        H  0.27257708  0.21571549  0.06386083     0.38500
O599        O  0.39020910  0.27014849  0.86775567    -0.81400
O600        O  0.43434305  0.31537903  0.72013111    -0.66100
O601        O  0.39058424  0.27779365  0.79491029    -1.12700
C602        C  0.43498354  0.23213879  0.79177353     1.05500
O603        O  0.43054060  0.28100374  0.69338619    -0.79300
O604        O  0.40323505  0.23363098  0.72084221    -0.66900
Ni605      Ni  0.39034358  0.29540010  0.83633754     1.34900
C606        C  0.38233067  0.22416922  0.73718835     0.84200
O607        O  0.39580973  0.31661306  0.75208019    -0.79900
O608        O  0.38908174  0.32165231  0.80879490    -0.90100
C609        C  0.43612482  0.30433614  0.69298420     0.83800
O610        O  0.42630859  0.31577224  0.84216443    -0.68300
O611        O  0.44393655  0.24217267  0.76190744    -0.87600
C612        C  0.44260351  0.32910293  0.81912910     0.84600
C613        C  0.38888564  0.32650961  0.77610776     1.06200
H614        H  0.44434446  0.28822756  0.77968767     0.38000
O615        O  0.42856803  0.27769708  0.76723035    -1.10300
O616        O  0.38034807  0.23232401  0.76710060    -0.66900
Ni617      Ni  0.40425277  0.25613938  0.80094767     1.26300
O618        O  0.43810890  0.32497835  0.78649137    -0.67200
O619        O  0.41878190  0.23529283  0.80823734    -0.79500
C620        C  0.37812907  0.24601964  0.86295497     0.84000
O621        O  0.37953686  0.23624739  0.83449104    -0.66600
Ni622      Ni  0.43650476  0.26212901  0.72945352     1.27400
Ni623      Ni  0.41268632  0.29751121  0.75824404     1.26100
H624        H  0.37344456  0.26813684  0.78582872     0.38500
O625        O  0.53043377  0.94008945  0.16236780    -0.81400
O626        O  0.52163046  0.88382503  0.02122309    -0.66100
O627        O  0.53500074  0.93374712  0.09066877    -1.12700
C628        C  0.44493711  0.89156185  0.09890878     1.05500
O629        O  0.48995376  0.88664821  0.99649676    -0.79300
O630        O  0.47179122  0.91563121  0.02267383    -0.66900
Ni631      Ni  0.55324187  0.93559528  0.13205332     1.34900
C632        C  0.48690537  0.93843196  0.03290204     0.84200
O633        O  0.56508348  0.92374751  0.04855747    -0.79900
O634        O  0.57833327  0.93288899  0.10483395    -0.90100
C635        C  0.50810823  0.88197753  0.99471110     0.83800
O636        O  0.53540619  0.89964817  0.14230579    -0.68300
O637        O  0.44303536  0.87812392  0.07179960    -0.87600
C638        C  0.53222766  0.88193355  0.12141740     0.84600
C639        C  0.58248743  0.93137309  0.07224608     1.06200
H640        H  0.48914723  0.88000000  0.08519992     0.38000
O641        O  0.49412142  0.89443146  0.06977977    -1.10300
O642        O  0.50080781  0.94353429  0.06010820    -0.66900
Ni643      Ni  0.50048705  0.92268000  0.09850803     1.26300
O644        O  0.53150616  0.88425952  0.08829475    -0.67200
O645        O  0.46581468  0.91089317  0.10846044    -0.79500
C646        C  0.52076017  0.95390015  0.15527625     0.84000
O647        O  0.50916158  0.95132486  0.12682895    -0.66600
Ni648      Ni  0.46770449  0.88313535  0.03538504     1.27400
Ni649      Ni  0.52917973  0.90833331  0.05730614     1.26100
H650        H  0.54339530  0.95036550  0.07944949     0.38500
O651        O  0.59304538  0.06042622  0.30574943    -0.81400
O652        O  0.64242575  0.11394980  0.44840877    -0.66100
O653        O  0.60391428  0.06544750  0.37775732    -1.12700
C654        C  0.55673144  0.10830609  0.37879096     1.05500
O655        O  0.60776406  0.10754180  0.47602478    -0.79300
O656        O  0.55980647  0.07917528  0.45107283    -0.66900
Ni657      Ni  0.61990463  0.06342819  0.33609424     1.34900
C658        C  0.55116921  0.05734436  0.43674085     0.84200
O659        O  0.64452015  0.07449476  0.41906320    -0.79900
O660        O  0.64761323  0.06482627  0.36292117    -0.90100
C661        C  0.63133379  0.11480588  0.47599493     0.83800
O662        O  0.63852488  0.09930331  0.32664170    -0.68300
O663        O  0.56770309  0.11904776  0.40766142    -0.87600
C664        C  0.65259277  0.11730435  0.34752947     0.84600
C665        C  0.65354099  0.06633292  0.39549427     1.06200
H666        H  0.61241708  0.11955036  0.38887583     0.38000
O667        O  0.60303749  0.10413738  0.40262808    -1.10300
O668        O  0.55952637  0.05448801  0.40762485    -0.66900
Ni669      Ni  0.58102131  0.07754350  0.37157347     1.26300
O670        O  0.65014934  0.11493258  0.38073380    -0.67200
O671        O  0.55893994  0.09063742  0.36430991    -0.79500
C672        C  0.56943510  0.04758595  0.31244523     0.84000
O673        O  0.56062124  0.05056276  0.34068121    -0.66600
Ni674      Ni  0.58806589  0.11256903  0.44044086     1.27400
Ni675      Ni  0.62434466  0.09009206  0.41197590     1.26100
H676        H  0.59535357  0.04869124  0.38852692     0.38500
O677        O  0.78660685  0.07233026  0.97006263    -0.81400
O678        O  0.79228894  0.02077874  0.10793882    -0.66100
O679        O  0.78084334  0.05962826  0.03978860    -1.12700
C680        C  0.87134258  0.11105675  0.04026060     1.05500
O681        O  0.82099942  0.05580336  0.13635466    -0.79300
O682        O  0.83993250  0.10444228  0.11326756    -0.66900
Ni683      Ni  0.76224121  0.04442814  0.99791984     1.34900
C684        C  0.82561148  0.11207274  0.10079541     0.84200
O685        O  0.74975461  0.01662643  0.07871607    -0.79900
O686        O  0.73618995  0.01575748  0.02330550    -0.90100
C687        C  0.80394721  0.03204712  0.13604360     0.83800
O688        O  0.77870464  0.02599397  0.98626683    -0.68300
O689        O  0.87167438  0.09890004  0.06759013    -0.87600
C690        C  0.78376434  0.01215084  0.00563484     0.84600
C691        C  0.73229173  0.00797391  0.05509853     1.06200
H692        H  0.82730888  0.05339273  0.04798245     0.38000
O693        O  0.82118827  0.06200282  0.06286656    -1.10300
O694        O  0.81373516  0.10378059  0.07193659    -0.66900
Ni695      Ni  0.81586855  0.08437987  0.03372197     1.26300
O696        O  0.78536911  0.01444712  0.03896621    -0.67200
O697        O  0.85099893  0.10841298  0.02706784    -0.79500
C698        C  0.79418262  0.09535264  0.97836490     0.84000
O699        O  0.80826405  0.10521884  0.00487850    -0.66600
Ni700      Ni  0.84524682  0.07688034  0.10047585     1.27400
Ni701      Ni  0.78576995  0.03889246  0.07225144     1.26100
H702        H  0.77248179  0.06736078  0.05175035     0.38500
O703        O  0.72139480  0.14791574  0.84740040    -0.81400
O704        O  0.67782243  0.13783338  0.69759095    -0.66100
O705        O  0.71505626  0.13584694  0.77618961    -1.12700
C706        C  0.76530831  0.22643038  0.76246188     1.05500
O707        O  0.71131324  0.16835716  0.66889599    -0.79300
O708        O  0.75762085  0.18382311  0.69581898    -0.66900
Ni709      Ni  0.69805794  0.11947974  0.81857769     1.34900
C710        C  0.76756271  0.17494156  0.71655709     0.84200
O711        O  0.67540732  0.09880380  0.73567502    -0.79900
O712        O  0.67367405  0.08940157  0.79320417    -0.90100
C713        C  0.68838625  0.14991805  0.66969438     0.83800
O714        O  0.67551537  0.13239278  0.82040200    -0.68300
O715        O  0.75710895  0.22327156  0.73091074    -0.87600
C716        C  0.66340546  0.13604062  0.79625998     0.84600
C717        C  0.66728378  0.08273561  0.76123031     1.06200
H718        H  0.70619245  0.17953400  0.75236786     0.38000
O719        O  0.71633293  0.17302293  0.74246274    -1.10300
O720        O  0.76107317  0.16985691  0.74865732    -0.66900
Ni721      Ni  0.73702134  0.17197072  0.77940174     1.26300
O722        O  0.66873440  0.13651793  0.76396724    -0.67200
O723        O  0.75816677  0.20805815  0.78387172    -0.79500
C724        C  0.74529108  0.15831479  0.84477718     0.84000
O725        O  0.75602999  0.16887341  0.81638011    -0.66600
Ni726      Ni  0.73326665  0.19420654  0.70240919     1.27400
Ni727      Ni  0.69545999  0.13608452  0.73768648     1.26100
H728        H  0.72457006  0.12794514  0.76868147     0.38500
O729        O  0.72809690  0.93026033  0.50112962    -0.81400
O730        O  0.77729485  0.98461333  0.35968350    -0.66100
O731        O  0.73094628  0.94188808  0.42989014    -1.12700
C732        C  0.77796867  0.89878771  0.42388180     1.05500
O733        O  0.77447781  0.95162345  0.33021877    -0.79300
O734        O  0.74876140  0.90282124  0.35320768    -0.66900
Ni735      Ni  0.72688700  0.95589445  0.47246847     1.34900
C736        C  0.72710046  0.89212139  0.36760455     0.84200
O737        O  0.73752092  0.98357698  0.39153250    -0.79900
O738        O  0.72461919  0.98229833  0.44718557    -0.90100
C739        C  0.77859656  0.97448995  0.33112428     0.83800
O740        O  0.76194342  0.97823338  0.48217138    -0.68300
O741        O  0.78834819  0.91135232  0.39587481    -0.87600
C742        C  0.77997718  0.99257916  0.46184987     0.84600
C743        C  0.72762778  0.99046742  0.41557066     1.06200
H744        H  0.78566443  0.95441387  0.41777425     0.38000
O745        O  0.77051939  0.94446276  0.40379117    -1.10300
O746        O  0.72328310  0.89867910  0.39765181    -0.66900
Ni747      Ni  0.74510376  0.92043569  0.43465149     1.26300
O748        O  0.77836650  0.98991339  0.42861597    -0.67200
O749        O  0.76029141  0.89982029  0.43993740    -0.79500
C750        C  0.71534828  0.90648084  0.49425962     0.84000
O751        O  0.71878519  0.89797819  0.46575558    -0.66600
Ni752      Ni  0.78081295  0.93199339  0.36488834     1.27400
Ni753      Ni  0.75453119  0.96438935  0.39622033     1.26100
H754        H  0.71445104  0.93243873  0.41877240     0.38500
O755        O  0.60340664  0.86614205  0.63928913    -0.81400
O756        O  0.55515657  0.87965980  0.77472665    -0.66100
O757        O  0.60213703  0.88147875  0.70726714    -1.12700
C758        C  0.55894831  0.79107243  0.72957189     1.05500
O759        O  0.56462466  0.85574065  0.80796994    -0.79300
O760        O  0.58905687  0.83048806  0.79270557    -0.66900
Ni761      Ni  0.60535536  0.89559191  0.66175162     1.34900
C762        C  0.61045605  0.84187343  0.77762402     0.84200
O763        O  0.59378400  0.91869491  0.73709370    -0.79900
O764        O  0.60841547  0.92631407  0.68148839    -0.90100
C765        C  0.55430450  0.86928685  0.80423612     0.83800
O766        O  0.57020314  0.88211429  0.65167718    -0.68300
O767        O  0.54836026  0.79503697  0.75571057    -0.87600
C768        C  0.55186184  0.87828251  0.67123737     0.84600
C769        C  0.60459852  0.93388993  0.71099791     1.06200
H770        H  0.54885288  0.83713525  0.72442801     0.38000
O771        O  0.56439556  0.84486281  0.73800777    -1.10300
O772        O  0.61332086  0.85106380  0.74681735    -0.66900
Ni773      Ni  0.58983853  0.84548993  0.70907440     1.26300
O774        O  0.55325273  0.87826056  0.70468108    -0.67200
O775        O  0.57612766  0.80900492  0.71090183    -0.79500
C776        C  0.61792142  0.85783592  0.64842750     0.84000
O777        O  0.61599028  0.84858990  0.67880797    -0.66600
Ni778      Ni  0.55661171  0.82597784  0.78065522     1.27400
Ni779      Ni  0.57833035  0.88156945  0.73905108     1.26100
H780        H  0.61871671  0.89063120  0.71820634     0.38500
O781        O  0.15989823  0.94664768  0.84387479    -0.81400
O782        O  0.16488497  0.89630266  0.98418274    -0.66100
O783        O  0.15775952  0.93944333  0.91762816    -1.12700
C784        C  0.24779804  0.98612887  0.92904088     1.05500
O785        O  0.18571228  0.93108807  0.01639458    -0.79300
O786        O  0.20442760  0.97962576  0.99471780    -0.66900
Ni787      Ni  0.13477868  0.92557632  0.87883232     1.34900
C788        C  0.19883350  0.99199409  0.97323003     0.84200
O789        O  0.12411967  0.89469232  0.95569641    -0.79900
O790        O  0.10689173  0.90341146  0.90954115    -0.90100
C791        C  0.17539600  0.90697412  0.01298660     0.83800
O792        O  0.14069052  0.89836142  0.86811896    -0.68300
O793        O  0.24332474  0.97814279  0.96082151    -0.87600
C794        C  0.15146299  0.88772186  0.88339983     0.84600
C795        C  0.10495996  0.89177966  0.93841889     1.06200
H796        H  0.20297182  0.92984277  0.93486651     0.38000
O797        O  0.19555521  0.93908096  0.94524726    -1.10300
O798        O  0.19498193  0.98638111  0.94077200    -0.66900
Ni799      Ni  0.19383555  0.96033351  0.91032343     1.26300
O800        O  0.16079073  0.89388975  0.91436929    -0.67200
O801        O  0.23031003  0.98016187  0.90589832    -0.79500
C802        C  0.17832691  0.96977281  0.84498738     0.84000
O803        O  0.19069614  0.97965460  0.87312673    -0.66600
Ni804      Ni  0.21385834  0.95436216  0.98744066     1.27400
Ni805      Ni  0.15999896  0.91652951  0.95009375     1.26100
H806        H  0.15223058  0.94930444  0.93089638     0.38500
O807        O  0.27683384  0.84789661  0.32105056    -0.81400
O808        O  0.23010411  0.85173020  0.17900551    -0.66100
O809        O  0.27040431  0.84217314  0.24735368    -1.12700
C810        C  0.32308876  0.93240036  0.23592313     1.05500
O811        O  0.26394784  0.87462343  0.14624059    -0.79300
O812        O  0.31003352  0.88655719  0.16844823    -0.66900
Ni813      Ni  0.25490369  0.82149978  0.28786972     1.34900
C814        C  0.32127915  0.87855229  0.18815362     0.84200
O815        O  0.22621264  0.80963881  0.20876598    -0.79900
O816        O  0.23183760  0.79303084  0.25850087    -0.90100
C817        C  0.24004942  0.86289114  0.15037755     0.83800
O818        O  0.22922124  0.82995785  0.29646953    -0.68300
O819        O  0.31484516  0.92856126  0.20430410    -0.87600
C820        C  0.21983393  0.84077999  0.27839190     0.84600
C821        C  0.22143702  0.79063307  0.22844240     1.06200
H822        H  0.26505449  0.88982288  0.22978463     0.38000
O823        O  0.27327564  0.88158697  0.21877434    -1.10300
O824        O  0.31770633  0.87589014  0.22132596    -0.66900
Ni825      Ni  0.29390659  0.87807256  0.25346878     1.26300
O826        O  0.22704034  0.84863596  0.24720175    -0.67200
O827        O  0.31620680  0.91442667  0.25840498    -0.79500
C828        C  0.30073936  0.86334660  0.31993491     0.84000
O829        O  0.31182123  0.87299835  0.29101292    -0.66600
Ni830      Ni  0.28888300  0.90047987  0.17717835     1.27400
Ni831      Ni  0.24927702  0.84587908  0.21365518     1.26100
H832        H  0.27890850  0.83459811  0.23537526     0.38500
O833        O  0.38219190  0.89638017  0.51397432    -0.81400
O834        O  0.43194674  0.95013747  0.65310621    -0.66100
O835        O  0.38910044  0.89919255  0.58726377    -1.12700
C836        C  0.33902625  0.93785907  0.60252214     1.05500
O837        O  0.39894871  0.93716057  0.68785215    -0.79300
O838        O  0.35212830  0.90372713  0.66681298    -0.66900
Ni839      Ni  0.40344239  0.89168157  0.54772577     1.34900
C840        C  0.33924708  0.88523192  0.64606875     0.84200
O841        O  0.43363753  0.91146693  0.62424099    -0.79900
O842        O  0.42568389  0.88556930  0.57794879    -0.90100
C843        C  0.42276572  0.94946046  0.68297633     0.83800
O844        O  0.43048930  0.92566306  0.53755332    -0.68300
O845        O  0.34794909  0.94181058  0.63381680    -0.87600
C846        C  0.43998868  0.94696613  0.55365800     0.84600
C847        C  0.43677924  0.89524976  0.60725179     1.06200
H848        H  0.39686334  0.95367159  0.60555943     0.38000
O849        O  0.38839458  0.93681447  0.61602087    -1.10300
O850        O  0.34244246  0.88692640  0.61290638    -0.66900
Ni851      Ni  0.36700195  0.91291205  0.58143099     1.26300
O852        O  0.43292602  0.94899975  0.58433754    -0.67200
O853        O  0.34572557  0.92780241  0.57833788    -0.79500
C854        C  0.35888884  0.89028611  0.51504253     0.84000
O855        O  0.34826797  0.89019051  0.54375039    -0.66600
Ni856      Ni  0.37401016  0.93923727  0.65897248     1.27400
Ni857      Ni  0.41146569  0.92470362  0.61963374     1.26100
H858        H  0.38006563  0.88334480  0.60021927     0.38500
O859        O  0.48503141  0.11152353  0.98642561    -0.81400
O860        O  0.48261185  0.05645251  0.85144326    -0.66100
O861        O  0.48787247  0.10793472  0.91336190    -1.12700
C862        C  0.39854205  0.06225456  0.90483667     1.05500
O863        O  0.45678052  0.06208543  0.81651484    -0.79300
O864        O  0.44391540  0.09635148  0.83571437    -0.66900
Ni865      Ni  0.51091360  0.11900900  0.95205042     1.34900
C866        C  0.44853187  0.11515361  0.85525910     0.84200
O867        O  0.52229302  0.09900544  0.87670879    -0.79900
O868        O  0.53880897  0.12751668  0.92092877    -0.90100
C869        C  0.47124070  0.05308737  0.82244031     0.83800
O870        O  0.50851692  0.08725745  0.96378467    -0.68300
O871        O  0.40293717  0.05900935  0.87300940    -0.87600
C872        C  0.49752165  0.06519681  0.94974149     0.84600
C873        C  0.54103297  0.11736482  0.89280308     1.06200
H874        H  0.44391042  0.05063288  0.90013305     0.38000
O875        O  0.45053958  0.06696408  0.88847541    -1.10300
O876        O  0.44982352  0.11429092  0.88857386    -0.66900
Ni877      Ni  0.45211528  0.09119135  0.92158616     1.26300
O878        O  0.48702441  0.06081128  0.91960059    -0.67200
O879        O  0.41604877  0.07326063  0.92793128    -0.79500
C880        C  0.46678448  0.11592599  0.98559737     0.84000
O881        O  0.45536827  0.11473140  0.95716345    -0.66600
Ni882      Ni  0.43107753  0.06130837  0.84675447     1.27400
Ni883      Ni  0.48627725  0.08240069  0.88279476     1.26100
H884        H  0.49289942  0.12304134  0.89931826     0.38500
O885        O  0.21923707  0.05716600  0.65409223    -0.81400
O886        O  0.28259126  0.10643356  0.52215839    -0.66100
O887        O  0.22684719  0.06333369  0.58054726    -1.12700
C888        C  0.26391322  0.01194429  0.58005053     1.05500
O889        O  0.27671233  0.07417365  0.48840677    -0.79300
O890        O  0.23626211  0.02914134  0.50618417    -0.66900
Ni891      Ni  0.21724422  0.07841361  0.61727140     1.34900
C892        C  0.21703635  0.01495200  0.52474914     0.84200
O893        O  0.24144646  0.10739374  0.54095605    -0.79900
O894        O  0.21332594  0.10032678  0.58341177    -0.90100
C895        C  0.28784771  0.09799269  0.49518156     0.83800
O896        O  0.25027354  0.10571986  0.63137821    -0.68300
O897        O  0.26698633  0.01813389  0.54758899    -0.87600
C898        C  0.27208713  0.11494303  0.61765043     0.84600
C899        C  0.22429980  0.11064646  0.55440875     1.06200
H900        H  0.28236966  0.07146536  0.57303355     0.38000
O901        O  0.26643514  0.06271487  0.56037951    -1.10300
O902        O  0.21738199  0.01640163  0.55817757    -0.66900
Ni903      Ni  0.24013930  0.04166047  0.59223157     1.26300
O904        O  0.27550454  0.10747042  0.58814545    -0.67200
O905        O  0.25503218  0.02113884  0.60222712    -0.79500
C906        C  0.21228612  0.03339587  0.65358483     0.84000
O907        O  0.21442456  0.02276386  0.62612886    -0.66600
Ni908      Ni  0.27095144  0.04677117  0.52004809     1.27400
Ni909      Ni  0.25442129  0.08548951  0.55107551     1.26100
H910        H  0.21204701  0.05394937  0.56573711     0.38500
O911        O  0.44004819  0.16783573  0.17678918    -0.81400
O912        O  0.39001543  0.16728867  0.31623051    -0.66100
O913        O  0.43933184  0.17433249  0.24987819    -1.12700
C914        C  0.39788765  0.08379933  0.26392659     1.05500
O915        O  0.40054563  0.14477992  0.34988223    -0.79300
O916        O  0.43209957  0.12912226  0.33024007    -0.66900
Ni917      Ni  0.44473971  0.19469199  0.20860817     1.34900
C918        C  0.45096247  0.13615556  0.31023660     0.84200
O919        O  0.42942613  0.20786810  0.28708927    -0.79900
O920        O  0.45038912  0.22379517  0.23649701    -0.90100
C921        C  0.38712897  0.15487605  0.34410517     0.83800
O922        O  0.41046449  0.18567053  0.19875547    -0.68300
O923        O  0.39332255  0.08796534  0.29522216    -0.87600
C924        C  0.39053650  0.17521482  0.21727956     0.84600
C925        C  0.44329957  0.22649292  0.26687536     1.06200
H926        H  0.38511721  0.12802673  0.26780496     0.38000
O927        O  0.40162458  0.13583655  0.27894484    -1.10300
O928        O  0.45015563  0.13936506  0.27729834    -0.66900
Ni929      Ni  0.42508162  0.13805228  0.24485227     1.26300
O930        O  0.39058040  0.16919049  0.24916527    -0.67200
O931        O  0.40961910  0.10152958  0.24125840    -0.79500
C932        C  0.44633042  0.15080001  0.17900786     0.84000
O933        O  0.44772347  0.14165218  0.20831491    -0.66600
Ni934      Ni  0.39734501  0.11719245  0.32118463     1.27400
Ni935      Ni  0.41504306  0.17182132  0.28310744     1.26100
H936        H  0.45552279  0.18155448  0.26178734     0.38500
C937        C  0.36629571  0.14946413  0.36775793    -0.05800
C938        C  0.34156147  0.13779261  0.35405046    -0.05700
C939        C  0.32073717  0.12701227  0.37649314    -0.23900
C940        C  0.32451301  0.12829793  0.41289970     0.18400
C941        C  0.34948785  0.14201223  0.42681326     0.15600
C942        C  0.37028498  0.15216494  0.40407774    -0.18900
C943        C  0.35321875  0.14411220  0.46323563    -0.20700
C944        C  0.33251910  0.13130681  0.48564637    -0.13300
C945        C  0.30801429  0.11585389  0.47186291     0.03400
C946        C  0.30390745  0.11495150  0.43557298    -0.25400
H947        H  0.33833981  0.13547382  0.32594638     0.08500
H948        H  0.30176003  0.11684979  0.36539712     0.12100
H949        H  0.38946096  0.16123122  0.41451853     0.12000
H950        H  0.37217004  0.15480610  0.47432733     0.11800
H951        H  0.33582954  0.13204276  0.51370444     0.12300
H952        H  0.28488969  0.10307592  0.42505802     0.14300
C953        C  0.45839554  0.12155938  0.01892802    -0.05800
C954        C  0.44300993  0.13260197  0.01911528    -0.05700
C955        C  0.43685493  0.13969988  0.05078041    -0.23900
C956        C  0.44589961  0.13572390  0.08266654     0.18400
C957        C  0.46033471  0.12348525  0.08285174     0.15600
C958        C  0.46645274  0.11646684  0.05101870    -0.18900
C959        C  0.46895643  0.11906515  0.11481195    -0.20700
C960        C  0.46407129  0.12753943  0.14630886    -0.13300
C961        C  0.45065006  0.14068574  0.14620841     0.03400
C962        C  0.44122065  0.14428623  0.11428777    -0.25400
H963        H  0.43635486  0.13643168  0.99474945     0.08500
H964        H  0.42549159  0.14878813  0.05028368     0.12100
H965        H  0.47789955  0.10745534  0.05124892     0.12000
H966        H  0.47983897  0.10946285  0.11538363     0.11800
H967        H  0.47127894  0.12433504  0.17062885     0.12300
H968        H  0.43038507  0.15395377  0.11396929     0.14300
C969        C  0.32038122  0.94604107  0.59423215    -0.05800
C970        C  0.31028418  0.94314358  0.56019524    -0.05700
C971        C  0.29482193  0.95322155  0.55161298    -0.23900
C972        C  0.28930832  0.96655594  0.57682552     0.18400
C973        C  0.29819012  0.96845449  0.61158802     0.15600
C974        C  0.31345984  0.95802199  0.62013364    -0.18900
C975        C  0.29263620  0.98180036  0.63679353    -0.20700
C976        C  0.27984032  0.99457426  0.62708578    -0.13300
C977        C  0.27234487  0.99415271  0.59204768     0.03400
C978        C  0.27625280  0.97918519  0.56737784    -0.25400
H979        H  0.31491054  0.93371208  0.53986454     0.08500
H980        H  0.28791465  0.95136601  0.52490405     0.12100
H981        H  0.32075755  0.96018758  0.64667255     0.12000
H982        H  0.29914416  0.98329097  0.66366605     0.11800
H983        H  0.27709696  0.00595303  0.64657463     0.12300
H984        H  0.27032011  0.97845748  0.54032856     0.14300
C985        C  0.47416356  0.03811532  0.79486087    -0.05800
C986        C  0.48205604  0.04865855  0.76134958    -0.05700
C987        C  0.47850155  0.03280581  0.73273371    -0.23900
C988        C  0.46565695  0.00615867  0.73719030     0.18400
C989        C  0.45885742  0.99559203  0.77132423     0.15600
C990        C  0.46410995  0.01183906  0.80019166    -0.18900
C991        C  0.44425872  0.96895400  0.77555138    -0.20700
C992        C  0.43395995  0.95320641  0.74615491    -0.13300
C993        C  0.43934580  0.96384116  0.71236615     0.03400
C994        C  0.45674682  0.98997957  0.70789176    -0.25400
H995        H  0.48972836  0.06896792  0.75709838     0.08500
H996        H  0.48374728  0.04117843  0.70678466     0.12100
H997        H  0.45759445  0.00378538  0.82611205     0.12000
H998        H  0.43889587  0.96055712  0.80147573     0.11800
H999        H  0.42054928  0.93296938  0.74979993     0.12300
H1000       H  0.46055019  0.99813762  0.68171947     0.14300
C1001       C  0.31544879  0.87079828  0.35341515    -0.05800
C1002       C  0.34205963  0.88271302  0.35328979    -0.05700
C1003       C  0.35578000  0.88889234  0.38484883    -0.23900
C1004       C  0.34320060  0.88355126  0.41720821     0.18400
C1005       C  0.31653200  0.87218485  0.41774687     0.15600
C1006       C  0.30283845  0.86574948  0.38593885    -0.18900
C1007       C  0.30401778  0.86735155  0.45010994    -0.20700
C1008       C  0.31775099  0.87340881  0.48165832    -0.13300
C1009       C  0.34426510  0.88419431  0.48153613     0.03400
C1010       C  0.35684210  0.88932194  0.44900029    -0.25400
H1011       H  0.35226977  0.88688604  0.32874441     0.08500
H1012       H  0.37625135  0.89775726  0.38393567     0.12100
H1013       H  0.28234757  0.85684601  0.38655189     0.12000
H1014       H  0.28358021  0.85880654  0.45103792     0.11800
H1015       H  0.30754907  0.86937434  0.50619721     0.12300
H1016       H  0.37729719  0.89791885  0.44834101     0.14300
C1017       C  0.34068140  0.95936949  0.24699099    -0.05800
C1018       C  0.34557216  0.96594125  0.28275802    -0.05700
C1019       C  0.35915557  0.99167909  0.29325129    -0.23900
C1020       C  0.36815425  0.01133781  0.26818109     0.18400
C1021       C  0.36450279  0.00495828  0.23214074     0.15600
C1022       C  0.35090994  0.97911870  0.22180908    -0.18900
C1023       C  0.37372426  0.02453408  0.20699157    -0.20700
C1024       C  0.38552489  0.05019497  0.21741003    -0.13300
C1025       C  0.38821282  0.05680842  0.25319208     0.03400
C1026       C  0.37996894  0.03720042  0.27849575    -0.25400
H1027       H  0.33805069  0.95121739  0.30275062     0.08500
H1028       H  0.36198007  0.99620136  0.32101839     0.12100
H1029       H  0.34758029  0.97445617  0.19410151     0.12000
H1030       H  0.37122812  0.01997602  0.17922550     0.11800
H1031       H  0.39171408  0.06482175  0.19735651     0.12300
H1032       H  0.38214546  0.04198552  0.30619934     0.14300
C1033       C  0.20264923  0.01808651  0.68622744    -0.05800
C1034       C  0.18583907  0.99146792  0.68447792    -0.05700
C1035       C  0.17703359  0.97683847  0.71514676    -0.23900
C1036       C  0.18529308  0.98845849  0.74820363     0.18400
C1037       C  0.20233149  0.01518558  0.75028370     0.15600
C1038       C  0.21062549  0.02986239  0.71936271    -0.18900
C1039       C  0.21107070  0.02672704  0.78324888    -0.20700
C1040       C  0.20321181  0.01195556  0.81384541    -0.13300
C1041       C  0.18618078  0.98534155  0.81225350     0.03400
C1042       C  0.17712258  0.97376745  0.77915152    -0.25400
H1043       H  0.17934955  0.98197271  0.65929922     0.08500
H1044       H  0.16399266  0.95637801  0.71298233     0.12100
H1045       H  0.22379501  0.05033606  0.72105434     0.12000
H1046       H  0.22419557  0.04717379  0.78537115     0.11800
H1047       H  0.21047069  0.02144235  0.83886330     0.12300
H1048       H  0.16411447  0.95327041  0.77737317     0.14300
C1049       C  0.37162525  0.05197033  0.91521207    -0.05800
C1050       C  0.36478811  0.04983198  0.95080434    -0.05700
C1051       C  0.33920695  0.03756810  0.96058622    -0.23900
C1052       C  0.31994244  0.02727726  0.93496971     0.18400
C1053       C  0.32657812  0.03026247  0.89912140     0.15600
C1054       C  0.35228246  0.04259948  0.88949470    -0.18900
C1055       C  0.30736880  0.02022958  0.87346285    -0.20700
C1056       C  0.28179127  0.00662952  0.88317621    -0.13300
C1057       C  0.27486685  0.00267096  0.91875764     0.03400
C1058       C  0.29418810  0.01351579  0.94456196    -0.25400
H1059       H  0.37918523  0.05692485  0.97119943     0.08500
H1060       H  0.33448678  0.03563711  0.98822906     0.12100
H1061       H  0.35715435  0.04430106  0.86191288     0.12000
H1062       H  0.31213232  0.02245939  0.84582747     0.11800
H1063       H  0.26743749  0.99857069  0.86275471     0.12300
H1064       H  0.28924539  0.01087493  0.97215074     0.14300
C1065       C  0.17787094  0.89229316  0.04173866    -0.05800
C1066       C  0.17158827  0.89514614  0.07615319    -0.05700
C1067       C  0.17939225  0.88612164  0.10454701    -0.23900
C1068       C  0.19471395  0.87536493  0.09889281     0.18400
C1069       C  0.20061918  0.87200019  0.06413393     0.15600
C1070       C  0.19136424  0.87965800  0.03575436    -0.18900
C1071       C  0.21742176  0.86306204  0.05838044    -0.20700
C1072       C  0.22949897  0.85900969  0.08672559    -0.13300
C1073       C  0.22407163  0.86267154  0.12125295     0.03400
C1074       C  0.20588669  0.86985433  0.12730074    -0.25400
H1075       H  0.16148335  0.90522580  0.08107422     0.08500
H1076       H  0.17483772  0.88904670  0.13096152     0.12100
H1077       H  0.19680121  0.87813248  0.00919493     0.12000
H1078       H  0.22232683  0.86062020  0.03193811     0.11800
H1079       H  0.24363215  0.85366825  0.08169851     0.12300
H1080       H  0.20213333  0.87327305  0.15394650     0.14300
C1081       C  0.52849943  0.87533395  0.65413033    -0.05800
C1082       C  0.52539820  0.87289952  0.61735734    -0.05700
C1083       C  0.50554982  0.87412777  0.60064644    -0.23900
C1084       C  0.48852392  0.87818173  0.62025448     0.18400
C1085       C  0.49094499  0.87974247  0.65727455     0.15600
C1086       C  0.51056871  0.87793196  0.67392731    -0.18900
C1087       C  0.47441652  0.88429649  0.67707109    -0.20700
C1088       C  0.45642496  0.88840646  0.66043649    -0.13300
C1089       C  0.45414393  0.88766211  0.62358876     0.03400
C1090       C  0.46984967  0.88178574  0.60356828    -0.25400
H1091       H  0.53880346  0.87079925  0.60130131     0.08500
H1092       H  0.50406525  0.87279138  0.57228146     0.12100
H1093       H  0.51267132  0.87999516  0.70220953     0.12000
H1094       H  0.47591839  0.88549499  0.70544701     0.11800
H1095       H  0.44445977  0.89265389  0.67655734     0.12300
H1096       H  0.46844447  0.88134443  0.57517456     0.14300
C1097       C  0.69511291  0.88941766  0.51834024    -0.05800
C1098       C  0.67016558  0.87537986  0.50547872    -0.05700
C1099       C  0.64973326  0.86415810  0.52862288    -0.23900
C1100       C  0.65405440  0.86641349  0.56494427     0.18400
C1101       C  0.67923365  0.87864726  0.57806059     0.15600
C1102       C  0.69966958  0.89043779  0.55461447    -0.18900
C1103       C  0.68344735  0.88012652  0.61443125    -0.20700
C1104       C  0.66299244  0.87115121  0.63755575    -0.13300
C1105       C  0.63817034  0.86105714  0.62459393     0.03400
C1106       C  0.63370766  0.85797678  0.58830811    -0.25400
H1107       H  0.66641304  0.87468630  0.47755030     0.08500
H1108       H  0.63057134  0.85464677  0.51814853     0.12100
H1109       H  0.71897258  0.90133470  0.56452460     0.12000
H1110       H  0.70257455  0.88914655  0.62496701     0.11800
H1111       H  0.66673825  0.87376228  0.66552856     0.12300
H1112       H  0.61452684  0.85008058  0.57828838     0.14300
C1113       C  0.56674057  0.12686812  0.87854864    -0.05800
C1114       C  0.58782686  0.13718071  0.90125364    -0.05700
C1115       C  0.61174110  0.14348418  0.88878087    -0.23900
C1116       C  0.61500696  0.13974960  0.85332212     0.18400
C1117       C  0.59428033  0.13086658  0.82978439     0.15600
C1118       C  0.57022727  0.12436307  0.84257318    -0.18900
C1119       C  0.59776692  0.12757500  0.79419338    -0.20700
C1120       C  0.62104488  0.13119378  0.78257850    -0.13300
C1121       C  0.64113857  0.13806462  0.80641429     0.03400
C1122       C  0.63829057  0.14342022  0.84146107    -0.25400
H1123       H  0.58561801  0.13934749  0.92901335     0.08500
H1124       H  0.62749766  0.15048272  0.90710239     0.12100
H1125       H  0.55412646  0.11674621  0.82474831     0.12000
H1126       H  0.58219016  0.12112723  0.77566104     0.11800
H1127       H  0.62278687  0.12707945  0.75540321     0.12300
H1128       H  0.65377673  0.14911567  0.85998463     0.14300
C1129       C  0.65017097  0.05462656  0.75483481    -0.05800
C1130       C  0.63655600  0.03853961  0.78320260    -0.05700
C1131       C  0.62360787  0.01182611  0.77994942    -0.23900
C1132       C  0.62395260  0.00034316  0.74823850     0.18400
C1133       C  0.63640624  0.01616252  0.71897495     0.15600
C1134       C  0.64923626  0.04316391  0.72229635    -0.18900
C1135       C  0.63665320  0.00469774  0.68722497    -0.20700
C1136       C  0.62565917  0.97809422  0.68481039    -0.13300
C1137       C  0.61402371  0.96202307  0.71405718     0.03400
C1138       C  0.61278648  0.97342168  0.74564428    -0.25400
H1139       H  0.63651771  0.04664096  0.80852644     0.08500
H1140       H  0.61396875  0.00016021  0.80262959     0.12100
H1141       H  0.65955634  0.05514192  0.70015999     0.12000
H1142       H  0.64589129  0.01635516  0.66437193     0.11800
H1143       H  0.62682467  0.97018286  0.65988092     0.12300
H1144       H  0.60384242  0.96151406  0.76841357     0.14300
C1145       C  0.78402886  0.98905221  0.29764795    -0.05800
C1146       C  0.79352931  0.01563114  0.29776955    -0.05700
C1147       C  0.79916361  0.02933902  0.26622374    -0.23900
C1148       C  0.79514430  0.01670781  0.23386080     0.18400
C1149       C  0.78487135  0.98989933  0.23334001     0.15600
C1150       C  0.77958862  0.97632054  0.26511901    -0.18900
C1151       C  0.78014154  0.97711151  0.20101381    -0.20700
C1152       C  0.78593945  0.99077730  0.16948380    -0.13300
C1153       C  0.79697866  0.01755933  0.16960264     0.03400
C1154       C  0.80134308  0.03039663  0.20203990    -0.25400
H1155       H  0.79696279  0.02592276  0.32231843     0.08500
H1156       H  0.80678720  0.04985514  0.26715869     0.12100
H1157       H  0.77191630  0.95578307  0.26445966     0.12000
H1158       H  0.77206332  0.95652501  0.20010503     0.11800
H1159       H  0.78226366  0.98042223  0.14494355     0.12300
H1160       H  0.80944079  0.05100323  0.20252055     0.14300
C1161       C  0.78342560  0.10891873  0.96053904    -0.05800
C1162       C  0.75778576  0.10061760  0.96622573    -0.05700
C1163       C  0.74608548  0.11173883  0.94802968    -0.23900
C1164       C  0.75981344  0.13085711  0.92324539     0.18400
C1165       C  0.78598565  0.13998615  0.91826139     0.15600
C1166       C  0.79782848  0.12917266  0.93752181    -0.18900
C1167       C  0.79936692  0.15863998  0.89267694    -0.20700
C1168       C  0.78644830  0.16644005  0.87022949    -0.13300
C1169       C  0.76010779  0.15601387  0.87356950     0.03400
C1170       C  0.74726315  0.13948274  0.90154468    -0.25400
H1171       H  0.74671144  0.08515727  0.98441161     0.08500
H1172       H  0.72606949  0.10461287  0.95220602     0.12100
H1173       H  0.81769006  0.13549343  0.93336867     0.12000
H1174       H  0.81944333  0.16603349  0.88866900     0.11800
H1175       H  0.79678637  0.17944888  0.84899155     0.12300
H1176       H  0.72697263  0.13143358  0.90448610     0.14300
C1177       C  0.67392288  0.14188890  0.63650767    -0.05800
C1178       C  0.64731967  0.12978261  0.63656499    -0.05700
C1179       C  0.63370579  0.12253522  0.60501860    -0.23900
C1180       C  0.64648534  0.12691238  0.57300625     0.18400
C1181       C  0.67323118  0.13880377  0.57275453     0.15600
C1182       C  0.68677550  0.14643745  0.60444694    -0.18900
C1183       C  0.68598135  0.14271870  0.54083339    -0.20700
C1184       C  0.67234435  0.13487508  0.50936471    -0.13300
C1185       C  0.64575568  0.12322683  0.50927342     0.03400
C1186       C  0.63295517  0.11940605  0.54128081    -0.25400
H1187       H  0.63708041  0.12623766  0.66100338     0.08500
H1188       H  0.61320225  0.11341159  0.60566669     0.12100
H1189       H  0.70729947  0.15556305  0.60419564     0.12000
H1190       H  0.70647597  0.15172934  0.54021664     0.11800
H1191       H  0.68264676  0.13804595  0.48506177     0.12300
H1192       H  0.61243701  0.11028353  0.54161036     0.14300
C1193       C  0.54069302  0.11648837  0.36033945    -0.05800
C1194       C  0.53609991  0.11159383  0.32412160    -0.05700
C1195       C  0.51976653  0.11744467  0.30627173    -0.23900
C1196       C  0.50725999  0.12785342  0.32438310     0.18400
C1197       C  0.51210419  0.13346250  0.36063833     0.15600
C1198       C  0.52917955  0.12816911  0.37830883    -0.18900
C1199       C  0.49879510  0.14303178  0.37886854    -0.20700
C1200       C  0.47976051  0.14538329  0.36187696    -0.13300
C1201       C  0.47426631  0.13894145  0.32615401     0.03400
C1202       C  0.48887179  0.13126342  0.30721219    -0.25400
H1203       H  0.54499016  0.10292834  0.30950989     0.08500
H1204       H  0.51627483  0.11302183  0.27852372     0.12100
H1205       H  0.53252201  0.13195867  0.40621732     0.12000
H1206       H  0.50223738  0.14751187  0.40660204     0.11800
H1207       H  0.46869896  0.15139406  0.37695187     0.12300
H1208       H  0.48451611  0.12593082  0.27979355     0.14300
C1209       C  0.53028465  0.03422855  0.45441470    -0.05800
C1210       C  0.51950141  0.00993186  0.43838330    -0.05700
C1211       C  0.49961443  0.98822196  0.45437303    -0.23900
C1212       C  0.48999843  0.99022574  0.48683262     0.18400
C1213       C  0.50058875  0.01441529  0.50333545     0.15600
C1214       C  0.52059030  0.03622135  0.48707137    -0.18900
C1215       C  0.49099683  0.01635657  0.53587715    -0.20700
C1216       C  0.47123550  0.99457510  0.55200817    -0.13300
C1217       C  0.46050378  0.97031725  0.53593922     0.03400
C1218       C  0.47005949  0.96842575  0.50310138    -0.25400
H1219       H  0.52636668  0.00765586  0.41326917     0.08500
H1220       H  0.49174440  0.96982971  0.44129663     0.12100
H1221       H  0.52856002  0.05472126  0.49987589     0.12000
H1222       H  0.49886420  0.03473676  0.54897619     0.11800
H1223       H  0.46442786  0.99674881  0.57722338     0.12300
H1224       H  0.46217514  0.94994458  0.49025869     0.14300
C1225       C  0.71858616  0.00844283  0.40679364    -0.05800
C1226       C  0.71922894  0.01664182  0.37208329    -0.05700
C1227       C  0.70846773  0.03155531  0.36344865    -0.23900
C1228       C  0.69676539  0.03846924  0.38932712     0.18400
C1229       C  0.69701295  0.03136285  0.42455143     0.15600
C1230       C  0.70802870  0.01658058  0.43308108    -0.18900
C1231       C  0.68537126  0.03831953  0.45045993    -0.20700
C1232       C  0.67241092  0.05100922  0.44128551    -0.13300
C1233       C  0.67087658  0.05701125  0.40603850     0.03400
C1234       C  0.68388239  0.05138844  0.38033983    -0.25400
H1235       H  0.72744349  0.01096009  0.35136932     0.08500
H1236       H  0.70864510  0.03704475  0.33632905     0.12100
H1237       H  0.70758888  0.01073247  0.46009014     0.12000
H1238       H  0.68552785  0.03315953  0.47766361     0.11800
H1239       H  0.66263228  0.05508647  0.46162049     0.12300
H1240       H  0.68310596  0.05608402  0.35307130     0.14300
C1241       C  0.51452452  0.87511499  0.96063815    -0.05800
C1242       C  0.52276820  0.85732329  0.95986683    -0.05700
C1243       C  0.53074328  0.85182034  0.92856911    -0.23900
C1244       C  0.53127776  0.86454155  0.89757586     0.18400
C1245       C  0.52297526  0.88245845  0.89774868     0.15600
C1246       C  0.51422365  0.88737028  0.92931046    -0.18900
C1247       C  0.52422572  0.89550460  0.86655986    -0.20700
C1248       C  0.53405925  0.89115961  0.83576907    -0.13300
C1249       C  0.54266385  0.87360498  0.83566968     0.03400
C1250       C  0.54068791  0.86005303  0.86667572    -0.25400
H1251       H  0.52314354  0.84772004  0.98367063     0.08500
H1252       H  0.53707926  0.83804342  0.92879137     0.12100
H1253       H  0.50822104  0.90141084  0.92983908     0.12000
H1254       H  0.51800700  0.90936524  0.86613389     0.11800
H1255       H  0.53526725  0.90177003  0.81225507     0.12300
H1256       H  0.54698933  0.84624130  0.86710558     0.14300
C1257       C  0.42258478  0.88515097  0.12160505    -0.05800
C1258       C  0.42683880  0.89246952  0.15730162    -0.05700
C1259       C  0.40718112  0.88984621  0.17880504    -0.23900
C1260       C  0.38270397  0.88020948  0.16511294     0.18400
C1261       C  0.37781117  0.87175686  0.12972964     0.15600
C1262       C  0.39766775  0.87387804  0.10831600    -0.18900
C1263       C  0.35342674  0.86261021  0.11587242    -0.20700
C1264       C  0.33471895  0.86345444  0.13590348    -0.13300
C1265       C  0.33965513  0.87290929  0.17058275     0.03400
C1266       C  0.36348168  0.88028640  0.18554992    -0.25400
H1267       H  0.44570925  0.90084505  0.16856658     0.08500
H1268       H  0.41138459  0.89628749  0.20583407     0.12100
H1269       H  0.39403710  0.86818288  0.08096071     0.12000
H1270       H  0.34913273  0.85589154  0.08897290     0.11800
H1271       H  0.31648986  0.85751203  0.12376582     0.12300
H1272       H  0.36766186  0.88785381  0.21207611     0.14300
C1273       C  0.52356829  0.97342706  0.18003820    -0.05800
C1274       C  0.53272354  0.99854330  0.16819135    -0.05700
C1275       C  0.54115781  0.01858307  0.19226334    -0.23900
C1276       C  0.54011112  0.01345779  0.22825005     0.18400
C1277       C  0.52822031  0.98775613  0.24012120     0.15600
C1278       C  0.52017550  0.96787204  0.21583030    -0.18900
C1279       C  0.52637005  0.98251175  0.27608293    -0.20700
C1280       C  0.53826135  0.00258551  0.29998314    -0.13300
C1281       C  0.55232205  0.02791091  0.28801741     0.03400
C1282       C  0.55239103  0.03348898  0.25240784    -0.25400
H1283       H  0.53511635  0.00287180  0.14038464     0.08500
H1284       H  0.54972716  0.03809393  0.18275949     0.12100
H1285       H  0.51264044  0.94830799  0.22470190     0.12000
H1286       H  0.51696457  0.96294843  0.28556490     0.11800
H1287       H  0.53808346  0.99825303  0.32762384     0.12300
H1288       H  0.56308449  0.05319455  0.24348039     0.14300
C1289       C  0.60918438  0.93985779  0.06264145    -0.05800
C1290       C  0.61686592  0.94255255  0.02743800    -0.05700
C1291       C  0.64266928  0.95409667  0.01905329    -0.23900
C1292       C  0.66121994  0.96342248  0.04571711     0.18400
C1293       C  0.65368976  0.95976521  0.08115965     0.15600
C1294       C  0.62781724  0.94774174  0.08934905    -0.18900
C1295       C  0.67219441  0.96932882  0.10786189    -0.20700
C1296       C  0.69799044  0.98381837  0.09952028    -0.13300
C1297       C  0.70569776  0.98879259  0.06433557     0.03400
C1298       C  0.68714255  0.97753442  0.03755211    -0.25400
H1299       H  0.60304448  0.93660738  0.00637548     0.08500
H1300       H  0.64816914  0.95664873  0.99168519     0.12100
H1301       H  0.62236166  0.94568164  0.11671965     0.12000
H1302       H  0.66667563  0.96653572  0.13522537     0.11800
H1303       H  0.71178305  0.99211064  0.12061191     0.12300
H1304       H  0.69272882  0.98087668  0.01021223     0.14300
C1305       C  0.49720276  0.04389071  0.96967135    -0.05800
C1306       C  0.50657052  0.04797642  0.00437085    -0.05700
C1307       C  0.50686330  0.02838725  0.02336153    -0.23900
C1308       C  0.49773268  0.00418708  0.00817189     0.18400
C1309       C  0.48811392  0.99970375  0.97344808     0.15600
C1310       C  0.48793273  0.01954269  0.95440599    -0.18900
C1311       C  0.47872433  0.97539078  0.95842545    -0.20700
C1312       C  0.47855507  0.95564792  0.97770614    -0.13300
C1313       C  0.48802936  0.95983144  0.01230560     0.03400
C1314       C  0.49784242  0.98434518  0.02725173    -0.25400
H1315       H  0.51373979  0.06642030  0.01700399     0.08500
H1316       H  0.51420042  0.03217588  0.04999170     0.12100
H1317       H  0.48065695  0.01602093  0.92773630     0.12000
H1318       H  0.47131090  0.97156566  0.93183890     0.11800
H1319       H  0.47100034  0.93702784  0.96543973     0.12300
H1320       H  0.50506978  0.98785300  0.05395385     0.14300
C1321       C  0.45149318  0.13857443  0.83832539    -0.05800
C1322       C  0.45289857  0.14098077  0.80150236    -0.05700
C1323       C  0.45253480  0.16138938  0.78498657    -0.23900
C1324       C  0.45043046  0.17963369  0.80492086     0.18400
C1325       C  0.45001358  0.17797911  0.84200257     0.15600
C1326       C  0.45095629  0.15773223  0.85845763    -0.18900
C1327       C  0.44730690  0.19583419  0.86198453    -0.20700
C1328       C  0.44354456  0.21418750  0.84539500    -0.13300
C1329       C  0.44302343  0.21542806  0.80854775     0.03400
C1330       C  0.44740267  0.19867585  0.78840285    -0.25400
H1331       H  0.45361080  0.12667685  0.78529156     0.08500
H1332       H  0.45297150  0.16236972  0.75657287     0.12100
H1333       H  0.44989456  0.15618690  0.88683047     0.12000
H1334       H  0.44704208  0.19494613  0.89040527     0.11800
H1335       H  0.44036226  0.22706055  0.86142160     0.12300
H1336       H  0.44676768  0.19936177  0.75999199     0.14300
C1337       C  0.35935589  0.20257477  0.72050262    -0.05800
C1338       C  0.33716247  0.18733624  0.74000490    -0.05700
C1339       C  0.31568669  0.16685012  0.72416025    -0.23900
C1340       C  0.31589828  0.16128688  0.68841999     0.18400
C1341       C  0.33816262  0.17639824  0.66870593     0.15600
C1342       C  0.35964327  0.19679097  0.68479104    -0.18900
C1343       C  0.33861383  0.17098201  0.63308739    -0.20700
C1344       C  0.31721380  0.15088188  0.61697916    -0.13300
C1345       C  0.29474605  0.13574954  0.63600360     0.03400
C1346       C  0.29426647  0.14106512  0.67194317    -0.25400
H1347       H  0.33644459  0.19114266  0.76762555     0.08500
H1348       H  0.29888599  0.15543049  0.73983691     0.12100
H1349       H  0.37655037  0.20830329  0.66931587     0.12000
H1350       H  0.35551562  0.18238915  0.61757674     0.11800
H1351       H  0.31819235  0.14742756  0.58929024     0.12300
H1352       H  0.27716613  0.12952361  0.68702667     0.14300
C1353       C  0.19803721  0.01474152  0.98616046    -0.05800
C1354       C  0.20159442  0.03413993  0.96253548    -0.05700
C1355       C  0.20433648  0.05719241  0.97469063    -0.23900
C1356       C  0.20327493  0.06123873  0.01072189     0.18400
C1357       C  0.19828167  0.04140543  0.03465606     0.15600
C1358       C  0.19586939  0.01834683  0.02227535    -0.18900
C1359       C  0.19655843  0.04532544  0.07063794    -0.20700
C1360       C  0.20082110  0.06901938  0.08290362    -0.13300
C1361       C  0.20721829  0.08932534  0.05947725    -0.25400
C1362       C  0.20788024  0.08505560  0.02326230    -0.25400
H1363       H  0.20334458  0.03194783  0.93464748     0.08500
H1364       H  0.20790027  0.07210407  0.95593885     0.12100
H1365       H  0.19289187  0.00348482  0.04079286     0.12000
H1366       H  0.19249132  0.03026913  0.08938186     0.11800
H1367       H  0.20017487  0.07180099  0.11087883     0.12300
H1368       H  0.21248987  0.10046386  0.00485609     0.14300
C1369       C  0.28194501  0.18628200  0.96219942    -0.05800
C1370       C  0.27380015  0.18337212  0.92719887    -0.05700
C1371       C  0.29135433  0.19080692  0.90008233    -0.23900
C1372       C  0.31730718  0.20241716  0.90790875     0.18400
C1373       C  0.32551222  0.20452649  0.94318193     0.15600
C1374       C  0.30758362  0.19549378  0.97007046    -0.18900
C1375       C  0.35155858  0.21780546  0.95114363    -0.20700
C1376       C  0.36922573  0.23074830  0.92466837    -0.13300
C1377       C  0.36098073  0.22928703  0.88995819     0.03400
C1378       C  0.33523299  0.21404841  0.88137434    -0.25400
H1379       H  0.25402723  0.17632008  0.92095831     0.08500
H1380       H  0.28483919  0.18916581  0.87318609     0.12100
H1381       H  0.31386418  0.19816614  0.99723087     0.12000
H1382       H  0.35812385  0.21961693  0.97803735     0.11800
H1383       H  0.38917022  0.24247040  0.93132502     0.12300
H1384       H  0.32902246  0.21333136  0.85444628     0.14300
C1385       C  0.29551127  0.16900386  0.12872179    -0.05800
C1386       C  0.31794179  0.18240792  0.10900126    -0.05700
C1387       C  0.34090331  0.18554931  0.12168637    -0.23900
C1388       C  0.34193851  0.17547915  0.15443470     0.18400
C1389       C  0.31946453  0.16167394  0.17419849     0.15600
C1390       C  0.29649439  0.15844312  0.16122023    -0.18900
C1391       C  0.32034880  0.15162769  0.20694589    -0.20700
C1392       C  0.34337936  0.15577590  0.22050011    -0.13300
C1393       C  0.36605805  0.16991752  0.20151834     0.03400
C1394       C  0.36507803  0.17936470  0.16807901    -0.25400
H1395       H  0.31778201  0.19055683  0.08375612     0.08500
H1396       H  0.35790029  0.19609997  0.10604766     0.12100
H1397       H  0.27942358  0.14793232  0.17674782     0.12000
H1398       H  0.30326637  0.14087123  0.22236182     0.11800
H1399       H  0.34341357  0.14804131  0.24613166     0.12300
H1400       H  0.38233851  0.19022449  0.15303890     0.14300
C1401       C  0.37953275  0.34401246  0.76605507    -0.05800
C1402       C  0.37602801  0.34778325  0.73053542    -0.05700
C1403       C  0.36474191  0.36202750  0.72110586    -0.23900
C1404       C  0.35661862  0.37268682  0.74699627     0.18400
C1405       C  0.36086227  0.36994596  0.78274957     0.15600
C1406       C  0.37243748  0.35578272  0.79205365    -0.18900
C1407       C  0.35261342  0.38063833  0.80854882    -0.20700
C1408       C  0.33917001  0.39282973  0.79902421    -0.13300
C1409       C  0.33382648  0.39457554  0.76353504     0.03400
C1410       C  0.34341705  0.38514710  0.73766707    -0.25400
H1411       H  0.38134744  0.33910620  0.70995746     0.08500
H1412       H  0.36170344  0.36408149  0.69353801     0.12100
H1413       H  0.37512440  0.35325135  0.81959085     0.12000
H1414       H  0.35585050  0.37886146  0.83612826     0.11800
H1415       H  0.33212554  0.39998408  0.81947339     0.12300
H1416       H  0.33980301  0.38663064  0.71012859     0.14300
C1417       C  0.18999508  0.22460438  0.31317593    -0.05800
C1418       C  0.18287140  0.23416541  0.28425288    -0.05700
C1419       C  0.18873005  0.23094751  0.24998787    -0.23900
C1420       C  0.20165708  0.21784062  0.24364844     0.18400
C1421       C  0.20942426  0.20856367  0.27241708     0.15600
C1422       C  0.20377530  0.21219879  0.30703757    -0.18900
C1423       C  0.22218140  0.19527506  0.26597957    -0.20700
C1424       C  0.22648367  0.19054889  0.23156274    -0.13300
C1425       C  0.21829976  0.19913168  0.20264984     0.03400
C1426       C  0.20632969  0.21329596  0.20900138    -0.25400
H1427       H  0.17253394  0.24412923  0.28804334     0.08500
H1428       H  0.18272528  0.23833082  0.22840290     0.12100
H1429       H  0.20942033  0.20476024  0.32897233     0.12000
H1430       H  0.22841116  0.18808822  0.28754147     0.11800
H1431       H  0.23600738  0.17978321  0.22765983     0.12300
H1432       H  0.19996624  0.22008012  0.18710037     0.14300
C1433       C  0.19520427  0.19376246  0.49459455    -0.05800
C1434       C  0.18545229  0.18634268  0.52873043    -0.05700
C1435       C  0.18711606  0.16699595  0.54643863    -0.23900
C1436       C  0.19911925  0.15506984  0.53066800     0.18400
C1437       C  0.20798451  0.16163983  0.49577202     0.15600
C1438       C  0.20553759  0.18055885  0.47772695    -0.18900
C1439       C  0.22041752  0.15019909  0.48011498    -0.20700
C1440       C  0.22505329  0.13333074  0.49919620    -0.13300
C1441       C  0.21717440  0.12720988  0.53437841     0.03400
C1442       C  0.20347024  0.13763055  0.54965605    -0.25400
H1443       H  0.17736310  0.19623809  0.54227023     0.08500
H1444       H  0.18004937  0.16220355  0.57303812     0.12100
H1445       H  0.21343470  0.18635333  0.45163670     0.12000
H1446       H  0.22725643  0.15487524  0.45339450     0.11800
H1447       H  0.23523818  0.12531849  0.48633937     0.12300
H1448       H  0.19716801  0.13306258  0.57661601     0.14300
C1449       C  0.18971098  0.30701020  0.54330090    -0.05800
C1450       C  0.20376988  0.33196906  0.52996433    -0.05700
C1451       C  0.21294005  0.35307448  0.55233122    -0.23900
C1452       C  0.20774109  0.34948682  0.58831727     0.18400
C1453       C  0.19184349  0.32446166  0.60157572     0.15600
C1454       C  0.18319679  0.30322314  0.57896948    -0.18900
C1455       C  0.18603699  0.32116400  0.63749611    -0.20700
C1456       C  0.19743175  0.34219269  0.66039411    -0.13300
C1457       C  0.21502727  0.36666604  0.64772215     0.03400
C1458       C  0.21937682  0.37034905  0.61149812    -0.25400
H1459       H  0.20886396  0.33507210  0.50244129     0.08500
H1460       H  0.22482899  0.37212501  0.54169123     0.12100
H1461       H  0.17217233  0.28390205  0.58916478     0.12000
H1462       H  0.17359684  0.30221891  0.64808988     0.11800
H1463       H  0.19394313  0.33901512  0.68830927     0.12300
H1464       H  0.23285299  0.38926096  0.60161276     0.14300
C1465       C  0.31633429  0.46336749  0.86419746    -0.05800
C1466       C  0.34193005  0.46986386  0.86384770    -0.05700
C1467       C  0.35502630  0.47230266  0.89519178    -0.23900
C1468       C  0.34277382  0.46803148  0.92766784     0.18400
C1469       C  0.31705551  0.46136421  0.92859469     0.15600
C1470       C  0.30407411  0.45931383  0.89693228    -0.18900
C1471       C  0.30475820  0.45666355  0.96118691    -0.20700
C1472       C  0.31786780  0.45876098  0.99252595    -0.13300
C1473       C  0.34361497  0.46590017  0.99194788     0.03400
C1474       C  0.35586455  0.47038514  0.95920920    -0.25400
H1475       H  0.35186678  0.47295618  0.83923399     0.08500
H1476       H  0.37473634  0.47734951  0.89399627     0.12100
H1477       H  0.28428291  0.45402158  0.89779486     0.12000
H1478       H  0.28501242  0.45147087  0.96246144     0.11800
H1479       H  0.30804370  0.45544679  0.01728009     0.12300
H1480       H  0.37569726  0.47581399  0.95823499     0.14300
C1481       C  0.32078540  0.37754875  0.11674601    -0.05800
C1482       C  0.31453180  0.36171749  0.14668691    -0.05700
C1483       C  0.29905805  0.33515080  0.14422314    -0.23900
C1484       C  0.28923895  0.32350897  0.11175924     0.18400
C1485       C  0.29441469  0.33905274  0.08159974     0.15600
C1486       C  0.31014157  0.36597166  0.08420055    -0.18900
C1487       C  0.28430023  0.32729035  0.04921030    -0.20700
C1488       C  0.27036365  0.30055341  0.04643874    -0.13300
C1489       C  0.26621707  0.28478471  0.07594645     0.03400
C1490       C  0.27511459  0.29656142  0.10884252    -0.25400
H1491       H  0.32202160  0.36978845  0.17233520     0.08500
H1492       H  0.29519366  0.32366817  0.16771127     0.12100
H1493       H  0.31456680  0.37772654  0.06088665     0.12000
H1494       H  0.28775216  0.33873878  0.02578362     0.11800
H1495       H  0.26361082  0.29223657  0.02068048     0.12300
H1496       H  0.27213308  0.28484685  0.13186322     0.14300
C1497       C  0.46188665  0.34730829  0.53280566    -0.05800
C1498       C  0.44894837  0.32040728  0.53229946    -0.05700
C1499       C  0.44161573  0.30657882  0.56365275    -0.23900
C1500       C  0.44676309  0.31945925  0.59592431     0.18400
C1501       C  0.45941714  0.34652469  0.59659664     0.15600
C1502       C  0.46709925  0.36025279  0.56510821    -0.18900
C1503       C  0.46409020  0.35942811  0.62873629    -0.20700
C1504       C  0.45633670  0.34564030  0.66002276    -0.13300
C1505       C  0.44404417  0.31873867  0.65972892     0.03400
C1506       C  0.43936334  0.30575013  0.62750814    -0.25400
H1507       H  0.44479474  0.31008774  0.50766024     0.08500
H1508       H  0.43185993  0.28583654  0.56265783     0.12100
H1509       H  0.47681360  0.38101863  0.56573014     0.12000
H1510       H  0.47368684  0.38016702  0.62967694     0.11800
H1511       H  0.46020961  0.35607520  0.68452855     0.12300
H1512       H  0.42970167  0.28499210  0.62695165     0.14300
C1513       C  0.45755867  0.32371282  0.35637365    -0.05800
C1514       C  0.45876296  0.30600022  0.37901133    -0.05700
C1515       C  0.45858648  0.28450913  0.36558044    -0.23900
C1516       C  0.45714801  0.28032000  0.32929221     0.18400
C1517       C  0.45760279  0.29877615  0.30613353     0.15600
C1518       C  0.45799900  0.32048053  0.31982557    -0.18900
C1519       C  0.45633768  0.29451539  0.26975939    -0.20700
C1520       C  0.45308617  0.27145860  0.25660193    -0.13300
C1521       C  0.45099126  0.25240472  0.27968248     0.03400
C1522       C  0.45394382  0.25735548  0.31592199    -0.25400
H1523       H  0.45877304  0.30814648  0.40723782     0.08500
H1524       H  0.45855552  0.27065623  0.38363161     0.12100
H1525       H  0.45742884  0.33415693  0.30203677     0.12000
H1526       H  0.45686594  0.30855126  0.25159728     0.11800
H1527       H  0.45090386  0.26799399  0.22856345     0.12300
H1528       H  0.45271586  0.24285136  0.33385114     0.14300
C1529       C  0.43915070  0.48460230  0.22459026    -0.05800
C1530       C  0.43345567  0.48929367  0.25845650    -0.05700
C1531       C  0.44298115  0.48325268  0.28797745    -0.23900
C1532       C  0.45748259  0.47146474  0.28396118     0.18400
C1533       C  0.46431472  0.46785160  0.24986999     0.15600
C1534       C  0.45579200  0.47528548  0.22038821    -0.18900
C1535       C  0.47741494  0.45460799  0.24568863    -0.20700
C1536       C  0.48185050  0.44326207  0.27464579    -0.13300
C1537       C  0.47430247  0.44599964  0.30830118     0.03400
C1538       C  0.46322439  0.46112734  0.31312654    -0.25400
H1539       H  0.42048788  0.49633915  0.26203320     0.08500
H1540       H  0.43749664  0.48609590  0.31383772     0.12100
H1541       H  0.45973035  0.47113336  0.19424750     0.12000
H1542       H  0.48266025  0.45152657  0.21979743     0.11800
H1543       H  0.49016997  0.43137155  0.27061434     0.12300
H1544       H  0.45680425  0.46264666  0.33903316     0.14300
C1545       C  0.27759789  0.27987052  0.42397727    -0.05800
C1546       C  0.28523610  0.28467963  0.38868056    -0.05700
C1547       C  0.31096133  0.29637081  0.37986031    -0.23900
C1548       C  0.32954959  0.30358223  0.40617262     0.18400
C1549       C  0.32205888  0.29787875  0.44155478     0.15600
C1550       C  0.29620606  0.28591757  0.45017788    -0.18900
C1551       C  0.34062192  0.30516123  0.46789385    -0.20700
C1552       C  0.36644181  0.31913290  0.45947345    -0.13300
C1553       C  0.37421356  0.32597034  0.42450979     0.03400
C1554       C  0.35550678  0.31732421  0.39785187    -0.25400
H1555       H  0.27142381  0.28023294  0.36794264     0.08500
H1556       H  0.31637385  0.30050235  0.35253736     0.12100
H1557       H  0.29070821  0.28217498  0.47752028     0.12000
H1558       H  0.33517957  0.30077638  0.49517113     0.11800
H1559       H  0.38029953  0.32530934  0.48051944     0.12300
H1560       H  0.36106010  0.32216554  0.37067596     0.14300
C1561       C  0.53822767  0.42449871  0.89889326    -0.05800
C1562       C  0.52533168  0.40447431  0.92298931    -0.05700
C1563       C  0.50483455  0.38093036  0.91190490    -0.23900
C1564       C  0.49711954  0.37708672  0.87654476     0.18400
C1565       C  0.51101434  0.39670419  0.85189591     0.15600
C1566       C  0.53138581  0.42018592  0.86320254    -0.18900
C1567       C  0.50373708  0.39293459  0.81650454    -0.20700
C1568       C  0.48214452  0.37036042  0.80577596    -0.13300
C1569       C  0.46727989  0.35119673  0.83027224     0.03400
C1570       C  0.47526687  0.35442617  0.86558598    -0.25400
H1571       H  0.53028114  0.40744442  0.95060819     0.08500
H1572       H  0.49454389  0.36603658  0.93114070     0.12100
H1573       H  0.54142636  0.43546997  0.84432718     0.12000
H1574       H  0.51433227  0.40774332  0.79726624     0.11800
H1575       H  0.47652382  0.36839581  0.77842091     0.12300
H1576       H  0.46412038  0.33969880  0.88466655     0.14300
C1577       C  0.53332120  0.50349726  0.97340756    -0.05800
C1578       C  0.52315500  0.51685057  0.95616046    -0.05700
C1579       C  0.50302887  0.51833528  0.97078187    -0.23900
C1580       C  0.49258393  0.50645745  0.00293146     0.18400
C1581       C  0.50269255  0.49316587  0.02077839     0.15600
C1582       C  0.52298654  0.49178280  0.00595822    -0.18900
C1583       C  0.49222606  0.48139673  0.05304380    -0.20700
C1584       C  0.47191917  0.48277409  0.06745221    -0.13300
C1585       C  0.46159908  0.49583927  0.04978482     0.03400
C1586       C  0.47216623  0.50766090  0.01744030    -0.25400
H1587       H  0.53061329  0.52601475  0.93111184     0.08500
H1588       H  0.49552086  0.52865820  0.95679817     0.12100
H1589       H  0.53051616  0.48135621  0.01963375     0.12000
H1590       H  0.49975686  0.47114766  0.06715987     0.11800
H1591       H  0.46430785  0.47360618  0.09245152     0.12300
H1592       H  0.46464908  0.51801671  0.00354562     0.14300
C1593       C  0.42578429  0.54689792  0.63882980    -0.05800
C1594       C  0.42730472  0.54504569  0.67549796    -0.05700
C1595       C  0.40605256  0.52802866  0.69501455    -0.23900
C1596       C  0.38282285  0.51197856  0.67824345     0.18400
C1597       C  0.38089574  0.51373725  0.64140125     0.15600
C1598       C  0.40228087  0.53151168  0.62194499    -0.18900
C1599       C  0.35784272  0.49704391  0.62458064    -0.20700
C1600       C  0.33727882  0.47833264  0.64378391    -0.13300
C1601       C  0.33905044  0.47614221  0.68038905     0.03400
C1602       C  0.36181867  0.49354185  0.69755030    -0.25400
H1603       H  0.44515092  0.55675763  0.68916588     0.08500
H1604       H  0.40797720  0.52697477  0.72316435     0.12100
H1605       H  0.40093974  0.53254267  0.59366844     0.12000
H1606       H  0.35592188  0.49795803  0.59640637     0.11800
H1607       H  0.32001944  0.46519258  0.62979663     0.12300
H1608       H  0.36364597  0.49187504  0.72560991     0.14300
C1609       C  0.55126731  0.76438795  0.72041334    -0.05800
C1610       C  0.54745925  0.74643367  0.74660862    -0.05700
C1611       C  0.54290676  0.72199941  0.73753421    -0.23900
C1612       C  0.54165489  0.71502394  0.70210039     0.18400
C1613       C  0.54403999  0.73260744  0.67578417     0.15600
C1614       C  0.54909772  0.75716109  0.68506125    -0.18900
C1615       C  0.54207014  0.72569181  0.64046014    -0.20700
C1616       C  0.53908101  0.70212476  0.63103836    -0.13300
C1617       C  0.53830823  0.68492710  0.65666734     0.03400
C1618       C  0.53892315  0.69124969  0.69239704    -0.25400
H1619       H  0.54903825  0.75167841  0.77407479     0.08500
H1620       H  0.54089430  0.70879048  0.75817648     0.12100
H1621       H  0.55169213  0.77082918  0.66474045     0.12000
H1622       H  0.54351339  0.73880358  0.61999779     0.11800
H1623       H  0.53846577  0.69791100  0.60330143     0.12300
H1624       H  0.53812731  0.67817572  0.71246763     0.14300
C1625       C  0.49141606  0.53907565  0.53381835    -0.05800
C1626       C  0.48018891  0.53324141  0.50015148    -0.05700
C1627       C  0.47884442  0.51319864  0.48031632    -0.23900
C1628       C  0.48866117  0.49845050  0.49365905     0.18400
C1629       C  0.50000230  0.50407703  0.52742371     0.15600
C1630       C  0.50142054  0.52437699  0.54721827    -0.18900
C1631       C  0.50970619  0.48926437  0.54086058    -0.20700
C1632       C  0.50859496  0.46940361  0.52089656    -0.13300
C1633       C  0.49775519  0.46382895  0.48695569     0.03400
C1634       C  0.48751644  0.47833965  0.47368081    -0.25400
H1635       H  0.47230810  0.54417588  0.48901965     0.08500
H1636       H  0.47008190  0.50922603  0.45452982     0.12100
H1637       H  0.50997811  0.52846924  0.57316166     0.12000
H1638       H  0.51833604  0.49314266  0.56673399     0.11800
H1639       H  0.51651307  0.45852106  0.53209473     0.12300
H1640       H  0.47906373  0.47430607  0.44767777     0.14300
C1641       C  0.52922075  0.56047787  0.70265422    -0.05800
C1642       C  0.53777344  0.54487093  0.68829156    -0.05700
C1643       C  0.54575449  0.53179359  0.71014233    -0.23900
C1644       C  0.54463631  0.53364015  0.74665916     0.18400
C1645       C  0.53425401  0.54783548  0.76120768     0.15600
C1646       C  0.52706841  0.56160187  0.73909259    -0.18900
C1647       C  0.53206485  0.54872047  0.79767390    -0.20700
C1648       C  0.54134118  0.53684324  0.81958439    -0.13300
C1649       C  0.55346756  0.52447165  0.80537311     0.03400
C1650       C  0.55460780  0.52241177  0.76888599    -0.25400
H1651       H  0.53948359  0.54384157  0.66011903     0.08500
H1652       H  0.55332446  0.52074792  0.69852206     0.12100
H1653       H  0.52019285  0.57344775  0.75011999     0.12000
H1654       H  0.52388494  0.55921806  0.80925843     0.11800
H1655       H  0.54050458  0.53874502  0.84775800     0.12300
H1656       H  0.56390152  0.51278397  0.75792746     0.14300
C1657       C  0.53479592  0.68564039  0.35976835    -0.05800
C1658       C  0.52316832  0.65879530  0.35879166    -0.05700
C1659       C  0.51615698  0.64452918  0.38979838    -0.23900
C1660       C  0.52113696  0.65687229  0.42245170     0.18400
C1661       C  0.53308617  0.68388951  0.42384502     0.15600
C1662       C  0.53948857  0.69806673  0.39251021    -0.18900
C1663       C  0.53882967  0.69626454  0.45656954    -0.20700
C1664       C  0.53312272  0.68204052  0.48757676    -0.13300
C1665       C  0.52104294  0.65515910  0.48645492     0.03400
C1666       C  0.51480999  0.64267423  0.45371822    -0.25400
H1667       H  0.51930499  0.64877759  0.33393641     0.08500
H1668       H  0.50711995  0.62385067  0.38824026     0.12100
H1669       H  0.54870594  0.71878528  0.39363692     0.12000
H1670       H  0.54805455  0.71695639  0.45818297     0.11800
H1671       H  0.53801853  0.69205835  0.51251531     0.12300
H1672       H  0.50573265  0.62196621  0.45256301     0.14300
C1673       C  0.45448084  0.57505791  0.12067616    -0.05800
C1674       C  0.46774247  0.59453034  0.09590631    -0.05700
C1675       C  0.48686286  0.61891691  0.10671919    -0.23900
C1676       C  0.49279075  0.62426761  0.14249975     0.18400
C1677       C  0.47861048  0.60514540  0.16764615     0.15600
C1678       C  0.45969877  0.58070391  0.15659286    -0.18900
C1679       C  0.48406306  0.61051714  0.20342799    -0.20700
C1680       C  0.50410731  0.63426760  0.21421800    -0.13300
C1681       C  0.51924429  0.65304202  0.18942885     0.03400
C1682       C  0.51310341  0.64808115  0.15353105    -0.25400
H1683       H  0.46401969  0.59060474  0.06810577     0.08500
H1684       H  0.49738261  0.63339678  0.08707016     0.12100
H1685       H  0.44933712  0.56589689  0.17595759     0.12000
H1686       H  0.47322580  0.59612764  0.22304710     0.11800
H1687       H  0.50837869  0.63753000  0.24201166     0.12300
H1688       H  0.52448115  0.66245965  0.13416867     0.14300
C1689       C  0.53877163  0.79407755  0.21327962    -0.05800
C1690       C  0.53064387  0.80725301  0.23506956    -0.05700
C1691       C  0.52635198  0.82621904  0.22130383    -0.23900
C1692       C  0.52984715  0.83221490  0.18539045     0.18400
C1693       C  0.53687903  0.81826690  0.16302036     0.15600
C1694       C  0.54140227  0.79946330  0.17706331    -0.18900
C1695       C  0.53996155  0.82382224  0.12705737    -0.20700
C1696       C  0.53707124  0.84363892  0.11351363    -0.13300
C1697       C  0.53126779  0.85855945  0.13563481     0.03400
C1698       C  0.52719533  0.85236572  0.17161404    -0.25400
H1699       H  0.52847116  0.80353830  0.26302078     0.08500
H1700       H  0.52079611  0.83655225  0.23888489     0.12100
H1701       H  0.54739776  0.78930506  0.15982526     0.12000
H1702       H  0.54521475  0.81323197  0.10948093     0.11800
H1703       H  0.54047192  0.84797472  0.08579716     0.12300
H1704       H  0.52262732  0.86360324  0.18899786     0.14300
C1705       C  0.61862658  0.80126505  0.30548869    -0.05800
C1706       C  0.61509300  0.80941721  0.33853239    -0.05700
C1707       C  0.63561459  0.82841627  0.35743618    -0.23900
C1708       C  0.66015750  0.83973914  0.34374622     0.18400
C1709       C  0.66409333  0.83158367  0.31080780     0.15600
C1710       C  0.64332992  0.81240539  0.29187057    -0.18900
C1711       C  0.68871903  0.84292546  0.29726181    -0.20700
C1712       C  0.70914906  0.86246857  0.31582451    -0.13300
C1713       C  0.70539278  0.87102880  0.34838322     0.03400
C1714       C  0.68076267  0.85927749  0.36233619    -0.25400
H1715       H  0.59634473  0.80121676  0.34984697     0.08500
H1716       H  0.63224353  0.83437328  0.38267591     0.12100
H1717       H  0.64641608  0.80624231  0.26659803     0.12000
H1718       H  0.69216281  0.83684729  0.27217086     0.11800
H1719       H  0.72792235  0.87096505  0.30451370     0.12300
H1720       H  0.67752471  0.86549140  0.38747692     0.14300
C1721       C  0.77713250  0.90553178  0.96026854    -0.05800
C1722       C  0.77971694  0.90842217  0.99690147    -0.05700
C1723       C  0.78400986  0.93099005  0.01291490    -0.23900
C1724       C  0.78518284  0.95082302  0.99257213     0.18400
C1725       C  0.78327273  0.94833954  0.95556156     0.15600
C1726       C  0.77971793  0.92584502  0.93954517    -0.18900
C1727       C  0.78374102  0.96788128  0.93536085    -0.20700
C1728       C  0.78510365  0.98919493  0.95167159    -0.13300
C1729       C  0.78627700  0.99155025  0.98853093     0.03400
C1730       C  0.78699630  0.97251312  0.00875893    -0.25400
H1731       H  0.77778508  0.89287771  0.01322875     0.08500
H1732       H  0.78544790  0.93253129  0.04127334     0.12100
H1733       H  0.77735440  0.92349601  0.91130562     0.12000
H1734       H  0.78222137  0.96630433  0.90700776     0.11800
H1735       H  0.78446973  0.00350067  0.93534093     0.12300
H1736       H  0.78766177  0.97388933  0.03716204     0.14300
C1737       C  0.66903972  0.62011497  0.89896006    -0.05800
C1738       C  0.66982818  0.63512565  0.87014237    -0.05700
C1739       C  0.68278218  0.66171028  0.87229250    -0.23900
C1740       C  0.69536445  0.67395496  0.90325149     0.18400
C1741       C  0.69547812  0.65923779  0.93209410     0.15600
C1742       C  0.68223185  0.63234551  0.92984354    -0.18900
C1743       C  0.70819962  0.67169129  0.96300848    -0.20700
C1744       C  0.71949512  0.69825236  0.96589846    -0.13300
C1745       C  0.71837724  0.71284753  0.93786806     0.03400
C1746       C  0.70698410  0.70062486  0.90619247    -0.25400
H1747       H  0.65969742  0.62631108  0.84601346     0.08500
H1748       H  0.68247203  0.67265317  0.84996810     0.12100
H1749       H  0.68180241  0.62102407  0.95216775     0.12000
H1750       H  0.70877319  0.66085371  0.98527821     0.11800
H1751       H  0.72849057  0.70730152  0.99053431     0.12300
H1752       H  0.70596118  0.71165145  0.88446946     0.14300
C1753       C  0.61999746  0.77622649  0.12831379    -0.05800
C1754       C  0.61084119  0.77102471  0.09366768    -0.05700
C1755       C  0.62763216  0.78049803  0.06540842    -0.23900
C1756       C  0.65392336  0.79428525  0.07144005     0.18400
C1757       C  0.66328479  0.80015574  0.10629654     0.15600
C1758       C  0.64618106  0.79177103  0.13450996    -0.18900
C1759       C  0.68954242  0.81242456  0.11242419    -0.20700
C1760       C  0.70618990  0.81717000  0.08456805    -0.13300
C1761       C  0.69697208  0.81083239  0.05003525     0.03400
C1762       C  0.67093571  0.80044878  0.04344139    -0.25400
H1763       H  0.59071386  0.75877473  0.08853248     0.08500
H1764       H  0.62011919  0.77566475  0.03892032     0.12100
H1765       H  0.65331134  0.79521462  0.16126944     0.12000
H1766       H  0.69705885  0.81697015  0.13893209     0.11800
H1767       H  0.72621281  0.82512676  0.09005765     0.12300
H1768       H  0.66371234  0.79508873  0.01685721     0.14300
C1769       C  0.69312755  0.83105834  0.87549613    -0.05800
C1770       C  0.66845607  0.81466424  0.88811891    -0.05700
C1771       C  0.64740603  0.81377663  0.87184677    -0.23900
C1772       C  0.65059061  0.82934585  0.84269690     0.18400
C1773       C  0.67525025  0.84585573  0.82973495     0.15600
C1774       C  0.69625479  0.84657100  0.84608736    -0.18900
C1775       C  0.67852147  0.86137040  0.80054600    -0.20700
C1776       C  0.65753972  0.86032755  0.78400516    -0.13300
C1777       C  0.63282405  0.84391671  0.79645032     0.03400
C1778       C  0.62956754  0.82857447  0.82613234    -0.25400
H1779       H  0.66540268  0.80248926  0.91059519     0.08500
H1780       H  0.62862080  0.80092119  0.88210991     0.12100
H1781       H  0.71509852  0.85943153  0.83597270     0.12000
H1782       H  0.69732499  0.87419168  0.79030254     0.11800
H1783       H  0.66068030  0.87234416  0.76130961     0.12300
H1784       H  0.61065075  0.81564691  0.83595780     0.14300
C1785       C  0.80466301  0.79947005  0.69237614    -0.05800
C1786       C  0.79225431  0.81364811  0.69234584    -0.05700
C1787       C  0.78339892  0.81831563  0.72356252    -0.23900
C1788       C  0.78630653  0.80843408  0.75537370     0.18400
C1789       C  0.79879666  0.79418098  0.75586504     0.15600
C1790       C  0.80825271  0.79010680  0.72441410    -0.18900
C1791       C  0.80114955  0.78386906  0.78769995    -0.20700
C1792       C  0.79117016  0.78758435  0.81868021    -0.13300
C1793       C  0.77889339  0.80192151  0.81850019     0.03400
C1794       C  0.77664365  0.81235243  0.78659807    -0.25400
H1795       H  0.78931156  0.82107963  0.66802656     0.08500
H1796       H  0.77388389  0.82929479  0.72272191     0.12100
H1797       H  0.81753535  0.77888833  0.72467081     0.12000
H1798       H  0.81059563  0.77282739  0.78861872     0.11800
H1799       H  0.79333322  0.77947559  0.84288052     0.12300
H1800       H  0.76719072  0.82340321  0.78594114     0.14300
C1801       C  0.79298309  0.81745271  0.51701821    -0.05800
C1802       C  0.78910802  0.83367958  0.53927677    -0.05700
C1803       C  0.78716321  0.85399909  0.52557177    -0.23900
C1804       C  0.78923270  0.85861570  0.48935937     0.18400
C1805       C  0.79466058  0.84347207  0.46688538     0.15600
C1806       C  0.79647253  0.82295240  0.48084512    -0.18900
C1807       C  0.79715974  0.84851005  0.43067820    -0.20700
C1808       C  0.79308779  0.86753559  0.41670821    -0.13300
C1809       C  0.78620871  0.88160050  0.43869602     0.03400
C1810       C  0.78496320  0.87746324  0.47513697    -0.25400
H1811       H  0.78640443  0.82998245  0.56720628     0.08500
H1812       H  0.78324269  0.86560139  0.54318983     0.12100
H1813       H  0.79971437  0.81076891  0.46341097     0.12000
H1814       H  0.80151348  0.83723781  0.41306091     0.11800
H1815       H  0.79411499  0.87040311  0.38856238     0.12300
H1816       H  0.77993908  0.88844713  0.49234799     0.14300
C1817       C  0.71272826  0.73182649  0.58782096    -0.05800
C1818       C  0.70519550  0.72925006  0.62310234    -0.05700
C1819       C  0.67940211  0.71667447  0.63185480    -0.23900
C1820       C  0.66065059  0.70628616  0.60550458     0.18400
C1821       C  0.66794278  0.70965829  0.56995034     0.15600
C1822       C  0.69383495  0.72258640  0.56135522    -0.18900
C1823       C  0.64921987  0.69915281  0.54358857    -0.20700
C1824       C  0.62349816  0.68444137  0.55238186    -0.13300
C1825       C  0.61599168  0.68005410  0.58770594     0.03400
C1826       C  0.63478877  0.69174320  0.61413236    -0.25400
H1827       H  0.71919494  0.73616179  0.64401607     0.08500
H1828       H  0.67411647  0.71435759  0.65930023     0.12100
H1829       H  0.69917686  0.72449556  0.53394767     0.12000
H1830       H  0.65451579  0.70165728  0.51614247     0.11800
H1831       H  0.60956784  0.67580150  0.53151518     0.12300
H1832       H  0.62943518  0.68879045  0.64156728     0.14300
C1833       C  0.64933004  0.53875427  0.02757904    -0.05800
C1834       C  0.67537797  0.54716246  0.02793198    -0.05700
C1835       C  0.68874055  0.55271396  0.05975465    -0.23900
C1836       C  0.67632610  0.55027677  0.09169496     0.18400
C1837       C  0.65031955  0.54267965  0.09140564     0.15600
C1838       C  0.63700082  0.53683869  0.05947307    -0.18900
C1839       C  0.63793441  0.54071018  0.12309829    -0.20700
C1840       C  0.65104846  0.54581718  0.15492146    -0.13300
C1841       C  0.67679053  0.55281421  0.15579696     0.03400
C1842       C  0.68936888  0.55513573  0.12389627    -0.25400
H1843       H  0.68521526  0.54866464  0.00367817     0.08500
H1844       H  0.70870074  0.55863592  0.05940846     0.12100
H1845       H  0.61694560  0.53061274  0.05945992     0.12000
H1846       H  0.61804329  0.53508294  0.12330612     0.11800
H1847       H  0.64088653  0.54401912  0.17896314     0.12300
H1848       H  0.70927901  0.56081815  0.12407391     0.14300
C1849       C  0.56850103  0.45757030  0.39489520    -0.05800
C1850       C  0.58978896  0.46793147  0.41727750    -0.05700
C1851       C  0.61338991  0.48755929  0.40563831    -0.23900
C1852       C  0.61612171  0.49697087  0.37131741     0.18400
C1853       C  0.59514772  0.48561776  0.34802114     0.15600
C1854       C  0.57148672  0.46612730  0.35998825    -0.18900
C1855       C  0.59795438  0.49454734  0.31346370    -0.20700
C1856       C  0.62096648  0.51538065  0.30254477    -0.13300
C1857       C  0.64147110  0.52784118  0.32609279     0.03400
C1858       C  0.63914191  0.51811800  0.36026471    -0.25400
H1859       H  0.58795944  0.46160051  0.44425730     0.08500
H1860       H  0.62931689  0.49583268  0.42375297     0.12100
H1861       H  0.55525976  0.45802006  0.34235177     0.12000
H1862       H  0.58214423  0.48589538  0.29516914     0.11800
H1863       H  0.62232531  0.52250671  0.27607905     0.12300
H1864       H  0.65497726  0.52741085  0.37846711     0.14300
C1865       C  0.80485719  0.70690684  0.46950898    -0.05800
C1866       C  0.81439231  0.71523005  0.43567211    -0.05700
C1867       C  0.80857740  0.69737325  0.40877183    -0.23900
C1868       C  0.79205902  0.67118283  0.41519046     0.18400
C1869       C  0.78323233  0.66277161  0.44968602     0.15600
C1870       C  0.79046642  0.68068908  0.47685897    -0.18900
C1871       C  0.76541679  0.63692709  0.45585539    -0.20700
C1872       C  0.75463938  0.62002824  0.42768819    -0.13300
C1873       C  0.76242453  0.62850002  0.39326876     0.03400
C1874       C  0.78223925  0.65366628  0.38729072    -0.25400
H1875       H  0.82555893  0.73551633  0.42987502     0.08500
H1876       H  0.81550236  0.70415195  0.38252786     0.12100
H1877       H  0.78284353  0.67443277  0.50300681     0.12000
H1878       H  0.75846347  0.63022736  0.48211599     0.11800
H1879       H  0.73938751  0.60062665  0.43258706     0.12300
H1880       H  0.78797592  0.66028603  0.36061157     0.14300
C1881       C  0.65598831  0.62004741  0.26253309    -0.05800
C1882       C  0.65368078  0.62463227  0.22691897    -0.05700
C1883       C  0.64095796  0.63738563  0.21691506    -0.23900
C1884       C  0.63023069  0.64577929  0.24230787     0.18400
C1885       C  0.63164374  0.64060260  0.27809175     0.15600
C1886       C  0.64443691  0.62773149  0.28797850    -0.18900
C1887       C  0.62073993  0.64892386  0.30339022    -0.20700
C1888       C  0.60918234  0.66289765  0.29339537    -0.13300
C1889       C  0.60830513  0.66881402  0.25790520     0.03400
C1890       C  0.61858346  0.65972732  0.23248632    -0.25400
H1891       H  0.66229640  0.61896240  0.20675940     0.08500
H1892       H  0.63992679  0.64111331  0.18931230     0.12100
H1893       H  0.64584243  0.62421942  0.31556983     0.12000
H1894       H  0.62151611  0.64499088  0.33097625     0.11800
H1895       H  0.60135454  0.66946695  0.31352853     0.12300
H1896       H  0.61795706  0.66385930  0.20493402     0.14300
C1897       C  0.85269434  0.53912431  0.34002827    -0.05800
C1898       C  0.84896646  0.53540120  0.30348143    -0.05700
C1899       C  0.82836980  0.53505417  0.28694992    -0.23900
C1900       C  0.81117010  0.53873626  0.30651737     0.18400
C1901       C  0.81395062  0.54120847  0.34348484     0.15600
C1902       C  0.83447487  0.54101970  0.36008063    -0.18900
C1903       C  0.79699875  0.54532276  0.36299954    -0.20700
C1904       C  0.77864213  0.54868603  0.34593943    -0.13300
C1905       C  0.77655791  0.54761346  0.30904589     0.03400
C1906       C  0.79220152  0.54150706  0.28955098    -0.25400
H1907       H  0.86252638  0.53360885  0.28734974     0.08500
H1908       H  0.82651906  0.53298190  0.25866228     0.12100
H1909       H  0.83711606  0.54398932  0.38820786     0.12000
H1910       H  0.79864787  0.54708791  0.39133028     0.11800
H1911       H  0.76657701  0.55305170  0.36163376     0.12300
H1912       H  0.79084428  0.54074204  0.26114254     0.14300
C1913       C  0.20250945  0.76439912  0.21612781    -0.05800
C1914       C  0.18982432  0.74437496  0.24043686    -0.05700
C1915       C  0.17086699  0.71999094  0.22941950    -0.23900
C1916       C  0.16438872  0.71499088  0.19377131     0.18400
C1917       C  0.17765525  0.73467315  0.16891792     0.15600
C1918       C  0.19644851  0.75925862  0.18022798    -0.18900
C1919       C  0.17157044  0.72955410  0.13320992    -0.20700
C1920       C  0.15194492  0.70550519  0.12231878    -0.13300
C1921       C  0.13776126  0.68606328  0.14689175     0.03400
C1922       C  0.14448378  0.69086874  0.18266428    -0.25400
H1923       H  0.19408957  0.74773781  0.26821354     0.08500
H1924       H  0.16104187  0.70513210  0.24886806     0.12100
H1925       H  0.20624922  0.77439936  0.16111177     0.12000
H1926       H  0.18164436  0.74432105  0.11372471     0.11800
H1927       H  0.14724701  0.70248871  0.09462235     0.12300
H1928       H  0.13385347  0.67610056  0.20194064     0.14300
C1929       C  0.96011387  0.53278699  0.28431627    -0.05800
C1930       C  0.95000975  0.52854212  0.25022235    -0.05700
C1931       C  0.96522256  0.53131757  0.22141965    -0.23900
C1932       C  0.99100920  0.53965364  0.22643583     0.18400
C1933       C  0.00097880  0.54299390  0.26091627     0.15600
C1934       C  0.98515093  0.53857511  0.28969177    -0.18900
C1935       C  0.02707999  0.55310997  0.26600426    -0.20700
C1936       C  0.04345390  0.56218811  0.23736730    -0.13300
C1937       C  0.03374208  0.55992678  0.20332212     0.03400
C1938       C  0.00745601  0.54723263  0.19771741    -0.25400
H1939       H  0.93058459  0.52383955  0.24588934     0.08500
H1940       H  0.95729387  0.52868816  0.19521143     0.12100
H1941       H  0.99293973  0.54208709  0.31610135     0.12000
H1942       H  0.03500671  0.55586767  0.29223106     0.11800
H1943       H  0.06377156  0.57214352  0.24187899     0.12300
H1944       H  0.00009648  0.54602755  0.17137754     0.14300
C1945       C  0.80348974  0.79484628  0.98839283    -0.05800
C1946       C  0.81608197  0.78800800  0.96360133    -0.05700
C1947       C  0.83557875  0.78372770  0.97390207    -0.23900
C1948       C  0.84310289  0.78644000  0.00916600     0.18400
C1949       C  0.83168103  0.79480654  0.03394947     0.15600
C1950       C  0.81193771  0.79890095  0.02346152    -0.18900
C1951       C  0.83959733  0.79807297  0.06908718    -0.20700
C1952       C  0.85805048  0.79235938  0.07980265    -0.13300
C1953       C  0.86870755  0.78291103  0.05573283     0.03400
C1954       C  0.86134419  0.78028492  0.02024430    -0.25400
H1955       H  0.81005631  0.78471761  0.93637514     0.08500
H1956       H  0.84426882  0.77759408  0.95443681     0.12100
H1957       H  0.80253363  0.80426378  0.04284505     0.12000
H1958       H  0.83117444  0.80458432  0.08843693     0.11800
H1959       H  0.86333054  0.79446303  0.10730197     0.12300
H1960       H  0.86958095  0.77320450  0.00139771     0.14300
C1961       C  0.00557051  0.80628644  0.02545464    -0.05800
C1962       C  0.02606185  0.82011304  0.04871204    -0.05700
C1963       C  0.04918049  0.84045740  0.03669410    -0.23900
C1964       C  0.05226904  0.84759716  0.00119381     0.18400
C1965       C  0.03141360  0.83492623  0.97795661     0.15600
C1966       C  0.00825783  0.81434149  0.99016649    -0.18900
C1967       C  0.03437028  0.84249136  0.94261574    -0.20700
C1968       C  0.05799900  0.86166389  0.93008683    -0.13300
C1969       C  0.07925739  0.87349317  0.95252203     0.03400
C1970       C  0.07603404  0.86663482  0.98833942    -0.25400
H1971       H  0.02464817  0.81442788  0.07595176     0.08500
H1972       H  0.06488344  0.85012929  0.05500018     0.12100
H1973       H  0.99261702  0.80406770  0.97191692     0.12000
H1974       H  0.01853644  0.83317022  0.92444981     0.11800
H1975       H  0.05984499  0.86656529  0.90249068     0.12300
H1976       H  0.09213527  0.87578757  0.00612564     0.14300
C1977       C  0.85633599  0.69710221  0.13531031    -0.05800
C1978       C  0.84430288  0.67327178  0.11803929    -0.05700
C1979       C  0.82461192  0.65159117  0.13424294    -0.23900
C1980       C  0.81669464  0.65326556  0.16814927     0.18400
C1981       C  0.82853603  0.67709033  0.18577812     0.15600
C1982       C  0.84815455  0.69883851  0.16923115    -0.18900
C1983       C  0.82067853  0.67870621  0.21976244    -0.20700
C1984       C  0.80134753  0.65687108  0.23622673    -0.13300
C1985       C  0.78944015  0.63299292  0.21899793     0.03400
C1986       C  0.79724818  0.63145844  0.18476729    -0.25400
H1987       H  0.85008393  0.67137126  0.09191810     0.08500
H1988       H  0.81567804  0.63346025  0.12031927     0.12100
H1989       H  0.85724314  0.71704017  0.18301215     0.12000
H1990       H  0.82955361  0.69684047  0.23367940     0.11800
H1991       H  0.79574794  0.65870667  0.26249743     0.12300
H1992       H  0.78827162  0.61326663  0.17097369     0.14300
C1993       C  0.99697419  0.71682623  0.08527050    -0.05800
C1994       C  0.00245851  0.71412356  0.12035491    -0.05700
C1995       C  0.01706706  0.70296552  0.12844334    -0.23900
C1996       C  0.02645488  0.69418531  0.10162881     0.18400
C1997       C  0.02169162  0.69732437  0.06625517     0.15600
C1998       C  0.00712987  0.70870717  0.05829738    -0.18900
C1999       C  0.03103523  0.68842867  0.03947663    -0.20700
C2000       C  0.04428309  0.67580828  0.04768138    -0.13300
C2001       C  0.04852752  0.67189787  0.08282603     0.03400
C2002       C  0.03992076  0.68169503  0.10966233    -0.25400
H2003       H  0.99502431  0.72016748  0.14166999     0.08500
H2004       H  0.02060638  0.70075110  0.15575110     0.12100
H2005       H  0.00321849  0.71063783  0.03104579     0.12000
H2006       H  0.02760925  0.69072628  0.01215631     0.11800
H2007       H  0.05058376  0.66849439  0.02649214     0.12300
H2008       H  0.04303432  0.67899601  0.13697359     0.14300
C2009       C  0.85720955  0.55902495  0.63037885    -0.05800
C2010       C  0.85542660  0.57315418  0.60232610    -0.05700
C2011       C  0.86067776  0.56920349  0.56800746    -0.23900
C2012       C  0.86722078  0.55058526  0.56100659     0.18400
C2013       C  0.86925798  0.53644252  0.58916650     0.15600
C2014       C  0.86469828  0.54107288  0.62374208    -0.18900
C2015       C  0.87521448  0.51744496  0.58220950    -0.20700
C2016       C  0.87900650  0.51237043  0.54778449    -0.13300
C2017       C  0.87718454  0.52633173  0.51944135     0.03400
C2018       C  0.87136811  0.54558572  0.52634709    -0.25400
H2019       H  0.84977784  0.58720317  0.60698238     0.08500
H2020       H  0.85907455  0.58030279  0.54689044     0.12100
H2021       H  0.86586122  0.52995372  0.64522736     0.12000
H2022       H  0.87674832  0.50633881  0.60337908     0.11800
H2023       H  0.88352750  0.49746517  0.54345609     0.12300
H2024       H  0.86994178  0.55655018  0.50487405     0.14300
C2025       C  0.67664440  0.53658660  0.85297246    -0.05800
C2026       C  0.69756279  0.54488714  0.87582333    -0.05700
C2027       C  0.72096290  0.54937687  0.86338565    -0.23900
C2028       C  0.72391978  0.54544388  0.82787950     0.18400
C2029       C  0.70268567  0.53556474  0.80509510     0.15600
C2030       C  0.67922857  0.53125465  0.81772470    -0.18900
C2031       C  0.70552749  0.53105040  0.76974980    -0.20700
C2032       C  0.72932778  0.53710373  0.75682340    -0.13300
C2033       C  0.75083606  0.54815522  0.77882900     0.03400
C2034       C  0.74787856  0.55190934  0.81456757    -0.25400
H2035       H  0.69625122  0.54919342  0.90305813     0.08500
H2036       H  0.73694992  0.55666915  0.88134644     0.12100
H2037       H  0.66330545  0.52473185  0.79977427     0.12000
H2038       H  0.68944582  0.52331912  0.75191813     0.11800
H2039       H  0.73108886  0.53402478  0.72922742     0.12300
H2040       H  0.76427339  0.56016302  0.83189642     0.14300
C2041       C  0.82021925  0.63129326  0.68971175    -0.05800
C2042       C  0.80728342  0.62632516  0.65730466    -0.05700
C2043       C  0.80727554  0.64596296  0.63814882    -0.23900
C2044       C  0.82020214  0.67113497  0.65084542     0.18400
C2045       C  0.83311143  0.67649308  0.68344756     0.15600
C2046       C  0.83307455  0.65657683  0.70269487    -0.18900
C2047       C  0.84598047  0.70173533  0.69607217    -0.20700
C2048       C  0.84642830  0.72147193  0.67639082    -0.13300
C2049       C  0.83397559  0.71645641  0.64362113     0.03400
C2050       C  0.82062827  0.69104127  0.63124482    -0.25400
H2051       H  0.79717340  0.60713501  0.64643937     0.08500
H2052       H  0.79724746  0.64144828  0.61325453     0.12100
H2053       H  0.84305969  0.66077651  0.72760503     0.12000
H2054       H  0.85589450  0.70627498  0.72105158     0.11800
H2055       H  0.85673358  0.74077752  0.68684191     0.12300
H2056       H  0.81088096  0.68675961  0.60613386     0.14300
C2057       C  0.85382256  0.63921960  0.85988716    -0.05800
C2058       C  0.86487876  0.66459173  0.84802860    -0.05700
C2059       C  0.87464591  0.68489712  0.87195751    -0.23900
C2060       C  0.87294282  0.68002155  0.90809663     0.18400
C2061       C  0.85995416  0.65437221  0.92020861     0.15600
C2062       C  0.85086580  0.63411088  0.89598754    -0.18900
C2063       C  0.85728193  0.64949307  0.95635355    -0.20700
C2064       C  0.86858562  0.66978007  0.98024648    -0.13300
C2065       C  0.88321247  0.69512677  0.96834231     0.03400
C2066       C  0.88491123  0.70026441  0.93227904    -0.25400
H2067       H  0.86739205  0.66877976  0.82019152     0.08500
H2068       H  0.88422472  0.70438980  0.86220350     0.12100
H2069       H  0.84222207  0.61448898  0.90512453     0.12000
H2070       H  0.84711867  0.63000589  0.96611858     0.11800
H2071       H  0.86716987  0.66558031  0.00807747     0.12300
H2072       H  0.89604769  0.71987320  0.92313359     0.14300
C2073       C  0.01858862  0.81202014  0.31073196    -0.05800
C2074       C  0.03432220  0.82421360  0.28162018    -0.05700
C2075       C  0.02509586  0.81755320  0.24746292    -0.23900
C2076       C  0.99983822  0.79866877  0.24148611     0.18400
C2077       C  0.98357388  0.78655939  0.27038879     0.15600
C2078       C  0.99305602  0.79321429  0.30487908    -0.18900
C2079       C  0.95811053  0.76807594  0.26420265    -0.20700
C2080       C  0.94884952  0.76199075  0.22985179    -0.13300
C2081       C  0.96494739  0.77393709  0.20101018     0.03400
C2082       C  0.99054182  0.79202316  0.20702711    -0.25400
H2083       H  0.05406658  0.83884269  0.28511334     0.08500
H2084       H  0.03777101  0.82718828  0.22570091     0.12100
H2085       H  0.98068111  0.78369450  0.32696961     0.12000
H2086       H  0.94528962  0.75859109  0.28587823     0.11800
H2087       H  0.92895275  0.74797767  0.22581102     0.12300
H2088       H  0.00295289  0.80159040  0.18497703     0.14300
C2089       C  0.19393209  0.99505080  0.50659681    -0.05800
C2090       C  0.18935150  0.99803977  0.47115906    -0.05700
C2091       C  0.16935839  0.97790552  0.45261025    -0.23900
C2092       C  0.15394960  0.95421184  0.46894653     0.18400
C2093       C  0.15812135  0.95130259  0.50482246     0.15600
C2094       C  0.17774349  0.97180381  0.52350271    -0.18900
C2095       C  0.14331642  0.92758815  0.52114216    -0.20700
C2096       C  0.12526565  0.90665691  0.50185987    -0.13300
C2097       C  0.12134636  0.90899318  0.46592231     0.03400
C2098       C  0.13523232  0.93308400  0.44977072    -0.25400
H2099       H  0.20157978  0.01584077  0.45758417     0.08500
H2100       H  0.16650616  0.98059732  0.42520298     0.12100
H2101       H  0.18131157  0.96916331  0.55065664     0.12000
H2102       H  0.14620931  0.92501093  0.54858516     0.11800
H2103       H  0.11458269  0.88836452  0.51505499     0.12300
H2104       H  0.13243449  0.93504927  0.42207860     0.14300
C2105       C  0.98729075  0.80837098  0.49311945    -0.05800
C2106       C  0.99172597  0.81978649  0.52658996    -0.05700
C2107       C  0.97218855  0.82028043  0.54508619    -0.23900
C2108       C  0.94757477  0.80869638  0.53092343     0.18400
C2109       C  0.94328587  0.79824635  0.49660319     0.15600
C2110       C  0.96321427  0.79863214  0.47768935    -0.18900
C2111       C  0.91878010  0.78618883  0.48245120    -0.20700
C2112       C  0.89849824  0.78322052  0.50259188    -0.13300
C2113       C  0.90206643  0.79244098  0.53741017     0.03400
C2114       C  0.92696089  0.80609022  0.55103485    -0.25400
H2115       H  0.01017185  0.82756815  0.53899968     0.08500
H2116       H  0.97606051  0.82861168  0.57115521     0.12100
H2117       H  0.95945098  0.78954714  0.45209392     0.12000
H2118       H  0.91509922  0.77817992  0.45618247     0.11800
H2119       H  0.87970378  0.77305719  0.49093036     0.12300
H2120       H  0.93009156  0.81336427  0.57768664     0.14300
C2121       C  0.19914952  0.84373461  0.29432481    -0.05800
C2122       C  0.18903582  0.85703614  0.27671128    -0.05700
C2123       C  0.16899557  0.85893131  0.29125580    -0.23900
C2124       C  0.15842740  0.84737845  0.32362026     0.18400
C2125       C  0.16833142  0.83389024  0.34148383     0.15600
C2126       C  0.18862161  0.83230772  0.32694052    -0.18900
C2127       C  0.15766648  0.82201276  0.37355583    -0.20700
C2128       C  0.13744100  0.82349550  0.38791895    -0.13300
C2129       C  0.12744038  0.83706907  0.37076063     0.03400
C2130       C  0.13814798  0.84901599  0.33841922    -0.25400
H2131       H  0.19656245  0.86594394  0.25155271     0.08500
H2132       H  0.16165300  0.86931113  0.27704575     0.12100
H2133       H  0.19594341  0.82179970  0.34089535     0.12000
H2134       H  0.16498956  0.81155161  0.38761564     0.11800
H2135       H  0.12984590  0.81423751  0.41287791     0.12300
H2136       H  0.13072354  0.85953875  0.32475464     0.14300
C2137       C  0.98052269  0.72017625  0.42233182    -0.05800
C2138       C  0.97252393  0.71290728  0.38744485    -0.05700
C2139       C  0.95790308  0.68699977  0.37820635    -0.23900
C2140       C  0.95124183  0.66783346  0.40359164     0.18400
C2141       C  0.95801414  0.67479915  0.43902583     0.15600
C2142       C  0.97232935  0.70087542  0.44823039    -0.18900
C2143       C  0.95145368  0.65556147  0.46433717    -0.20700
C2144       C  0.93970984  0.62974922  0.45428431    -0.13300
C2145       C  0.93420431  0.62271927  0.41876948     0.03400
C2146       C  0.93913576  0.64190510  0.39379441    -0.25400
H2147       H  0.97831473  0.72721550  0.36700681     0.08500
H2148       H  0.95267214  0.68194746  0.35092043     0.12100
H2149       H  0.97818805  0.70601264  0.47533330     0.12000
H2150       H  0.95634929  0.66055381  0.49171419     0.11800
H2151       H  0.93606136  0.61545733  0.47408829     0.12300
H2152       H  0.93474980  0.63684738  0.36632252     0.14300
C2153       C  0.11936204  0.65073545  0.97605367    -0.05800
C2154       C  0.13394505  0.67761609  0.97656414    -0.05700
C2155       C  0.14140004  0.69147104  0.94535675    -0.23900
C2156       C  0.13399855  0.67871984  0.91301929     0.18400
C2157       C  0.11893354  0.65168244  0.91202677     0.15600
C2158       C  0.11197825  0.63778450  0.94362169    -0.18900
C2159       C  0.11095508  0.63915240  0.87946987    -0.20700
C2160       C  0.11788565  0.65331157  0.84827584    -0.13300
C2161       C  0.13326316  0.68017727  0.84912994     0.03400
C2162       C  0.14126987  0.69268880  0.88169885    -0.25400
H2163       H  0.13987424  0.68795456  0.00123637     0.08500
H2164       H  0.15284034  0.71219210  0.94652927     0.12100
H2165       H  0.10045120  0.61704570  0.94301945     0.12000
H2166       H  0.09924792  0.61845954  0.87814147     0.11800
H2167       H  0.11139173  0.64324309  0.82347521     0.12300
H2168       H  0.15279719  0.71342013  0.88276272     0.14300
C2169       C  0.23182361  0.79161884  0.70212101    -0.05800
C2170       C  0.22919520  0.79757000  0.66715308    -0.05700
C2171       C  0.25018511  0.81533532  0.64798247    -0.23900
C2172       C  0.27430737  0.82784059  0.66346859     0.18400
C2173       C  0.27738369  0.82157921  0.69828898     0.15600
C2174       C  0.25615883  0.80318587  0.71726560    -0.18900
C2175       C  0.30146632  0.83466742  0.71401146    -0.20700
C2176       C  0.32193287  0.85451935  0.69612760    -0.13300
C2177       C  0.31889253  0.86130521  0.66188415     0.03400
C2178       C  0.29514993  0.84733465  0.64527873    -0.25400
H2179       H  0.21067362  0.78870749  0.65468260     0.08500
H2180       H  0.24741336  0.81982510  0.62137889     0.12100
H2181       H  0.25838215  0.79887907  0.74421722     0.12000
H2182       H  0.30427580  0.83022066  0.74061227     0.11800
H2183       H  0.34008083  0.86512621  0.70947225     0.12300
H2184       H  0.29250493  0.85276435  0.61916122     0.14300
C2185       C  0.04154853  0.66132839  0.74895961    -0.05800
C2186       C  0.03338806  0.65837747  0.78395605    -0.05700
C2187       C  0.00744912  0.64541679  0.79182054    -0.23900
C2188       C  0.98920501  0.63524075  0.76481634     0.18400
C2189       C  0.99712474  0.63678750  0.72973326     0.15600
C2190       C  0.02318530  0.64958763  0.72207147    -0.18900
C2191       C  0.97886921  0.62658518  0.70274930    -0.20700
C2192       C  0.95306222  0.61618111  0.71023931    -0.13300
C2193       C  0.94499575  0.61561457  0.74488989     0.03400
C2194       C  0.96326772  0.62451646  0.77217911    -0.25400
H2195       H  0.04701905  0.66718226  0.80513799     0.08500
H2196       H  0.00167274  0.64422750  0.81893374     0.12100
H2197       H  0.02912979  0.65143071  0.69493536     0.12000
H2198       H  0.98461817  0.62738337  0.67569513     0.11800
H2199       H  0.93950416  0.60916977  0.68877528     0.12300
H2200       H  0.95748515  0.62399282  0.79916510     0.14300
C2201       C  0.13664962  0.78773703  0.64258454    -0.05800
C2202       C  0.12785757  0.80377426  0.65434657    -0.05700
C2203       C  0.11904392  0.81481411  0.63015150    -0.23900
C2204       C  0.11913237  0.80984266  0.59423953     0.18400
C2205       C  0.13117351  0.79648962  0.58240311     0.15600
C2206       C  0.14001166  0.78564291  0.60676319    -0.18900
C2207       C  0.13189561  0.79196349  0.54656837    -0.20700
C2208       C  0.11870201  0.79842744  0.52292261    -0.13300
C2209       C  0.10450006  0.80916125  0.53498782     0.03400
C2210       C  0.10558737  0.81594608  0.57031075    -0.25400
H2211       H  0.12543583  0.80564211  0.68213586     0.08500
H2212       H  0.11044345  0.82551322  0.63960730     0.12100
H2213       H  0.14720446  0.77350040  0.59792377     0.12000
H2214       H  0.14138004  0.78212156  0.53710517     0.11800
H2215       H  0.11819570  0.79349179  0.49546550     0.12300
H2216       H  0.09495969  0.82474064  0.57927097     0.14300
C2217       C  0.16774536  0.79805969  0.81244215    -0.05800
C2218       C  0.18255676  0.80705499  0.84328574    -0.05700
C2219       C  0.18250367  0.82630892  0.86383240    -0.23900
C2220       C  0.16767832  0.83700648  0.85393095     0.18400
C2221       C  0.15289668  0.82808873  0.82292242     0.15600
C2222       C  0.15299992  0.80884442  0.80259636    -0.18900
C2223       C  0.13813973  0.83853527  0.81246860    -0.20700
C2224       C  0.13793514  0.85768907  0.83236019    -0.13300
C2225       C  0.15244478  0.86701700  0.86342236     0.03400
C2226       C  0.16731593  0.85641781  0.87419983    -0.25400
H2227       H  0.19423288  0.79924890  0.85153476     0.08500
H2228       H  0.19407533  0.83284000  0.88740729     0.12100
H2229       H  0.14154700  0.80234001  0.77888621     0.12000
H2230       H  0.12669199  0.83189008  0.78877432     0.11800
H2231       H  0.12613448  0.86513505  0.82324920     0.12300
H2232       H  0.17864558  0.86333161  0.89796012     0.14300
C2233       C  0.32110256  0.46690818  0.17134952    -0.05800
C2234       C  0.32467087  0.47790110  0.20497616    -0.05700
C2235       C  0.30474082  0.47833068  0.22216735    -0.23900
C2236       C  0.28069955  0.46717058  0.20637940     0.18400
C2237       C  0.27729744  0.45699519  0.17198249     0.15600
C2238       C  0.29762978  0.45742034  0.15442125    -0.18900
C2239       C  0.25325353  0.44522683  0.15639505    -0.20700
C2240       C  0.23253130  0.44244714  0.17517644    -0.13300
C2241       C  0.23537051  0.45164702  0.20986347     0.03400
C2242       C  0.25975110  0.46480393  0.22496661    -0.25400
H2243       H  0.34271313  0.48539958  0.21847313     0.08500
H2244       H  0.30783489  0.48632360  0.24839787     0.12100
H2245       H  0.29464044  0.44860837  0.12872116     0.12000
H2246       H  0.25028721  0.43738295  0.13007963     0.11800
H2247       H  0.21404637  0.43258881  0.16259265     0.12300
H2248       H  0.26219901  0.47197575  0.25162303     0.14300
C2249       C  0.13735924  0.48516000  0.18182056    -0.05800
C2250       C  0.14655278  0.49006570  0.14713786    -0.05700
C2251       C  0.14570625  0.50889799  0.12693384    -0.23900
C2252       C  0.13526802  0.52289662  0.14087043     0.18400
C2253       C  0.12741364  0.51907967  0.17641467     0.15600
C2254       C  0.12900718  0.50065865  0.19683934    -0.18900
C2255       C  0.11648189  0.53250999  0.19038908    -0.20700
C2256       C  0.11204803  0.54845815  0.16900490    -0.13300
C2257       C  0.11870922  0.55164770  0.13323296     0.03400
C2258       C  0.13119934  0.53951259  0.11949845    -0.25400
H2259       H  0.15323702  0.47840910  0.13501923     0.08500
H2260       H  0.15199371  0.51156541  0.09990837     0.12100
H2261       H  0.12164719  0.49687319  0.22337819     0.12000
H2262       H  0.11042526  0.52991655  0.21752613     0.11800
H2263       H  0.10272551  0.55791107  0.18038237     0.12300
H2264       H  0.13629517  0.54175410  0.09196928     0.14300
C2265       C  0.16069485  0.37339247  0.30703110    -0.05800
C2266       C  0.14227699  0.34951859  0.29298375    -0.05700
C2267       C  0.13803996  0.32668814  0.30785957    -0.23900
C2268       C  0.15205108  0.32714498  0.33721153     0.18400
C2269       C  0.17021337  0.35090269  0.35220310     0.15600
C2270       C  0.17444031  0.37392339  0.33704037    -0.18900
C2271       C  0.18397427  0.35116133  0.38187288    -0.20700
C2272       C  0.17992053  0.32815365  0.39630012    -0.13300
C2273       C  0.16211210  0.30444088  0.38123382     0.03400
C2274       C  0.14821893  0.30416478  0.35164079    -0.25400
H2275       H  0.13122402  0.34837583  0.27003199     0.08500
H2276       H  0.12393078  0.30865852  0.29617951     0.12100
H2277       H  0.18856478  0.39212518  0.34829749     0.12000
H2278       H  0.19793033  0.36913336  0.39383871     0.11800
H2279       H  0.19092389  0.32896113  0.41913839     0.12300
H2280       H  0.13432223  0.28606553  0.33986647     0.14300
C2281       C  0.17543207  0.19599015  0.02565240    -0.05800
C2282       C  0.16432202  0.18160818  0.99492400    -0.05700
C2283       C  0.14551073  0.18361744  0.97664976    -0.23900
C2284       C  0.13773310  0.20048945  0.98829216     0.18400
C2285       C  0.14776432  0.21402168  0.02016675     0.15600
C2286       C  0.16618771  0.21131286  0.03903024    -0.18900
C2287       C  0.14038893  0.23126671  0.03146493    -0.20700
C2288       C  0.12426216  0.23596633  0.01072281    -0.13300
C2289       C  0.11482152  0.22335649  0.97826161     0.03400
C2290       C  0.12111752  0.20500164  0.96774515    -0.25400
H2291       H  0.17123574  0.16980093  0.98394860     0.08500
H2292       H  0.13803285  0.17298358  0.95240867     0.12100
H2293       H  0.17493904  0.22288371  0.06226039     0.12000
H2294       H  0.14772971  0.24175966  0.05584021     0.11800
H2295       H  0.11949066  0.24990227  0.01998649     0.12300
H2296       H  0.11400841  0.19506086  0.94294712     0.14300
C2297       C  0.98392212  0.20075189  0.98917265    -0.05800
C2298       C  0.98530506  0.19409240  0.02416645    -0.05700
C2299       C  0.96409414  0.17396529  0.04059216    -0.23900
C2300       C  0.94087660  0.16042595  0.02260205     0.18400
C2301       C  0.93943921  0.16664755  0.98716775     0.15600
C2302       C  0.96101891  0.18641211  0.97052777    -0.18900
C2303       C  0.91618089  0.15369256  0.96933929    -0.20700
C2304       C  0.89440549  0.13536350  0.98666509    -0.13300
C2305       C  0.89535853  0.12921879  0.02211722     0.03400
C2306       C  0.91889655  0.14146593  0.03974670    -0.25400
H2307       H  0.00273370  0.20482026  0.03910152     0.08500
H2308       H  0.96565370  0.16953390  0.06771973     0.12100
H2309       H  0.95957912  0.19154858  0.94369445     0.12000
H2310       H  0.91467743  0.15817288  0.94220585     0.11800
H2311       H  0.87662655  0.12609841  0.97224502     0.12300
H2312       H  0.91990840  0.13705151  0.06707263     0.14300
C2313       C  0.13494749  0.36760938  0.14210995    -0.05800
C2314       C  0.12386264  0.34217610  0.15352009    -0.05700
C2315       C  0.11480253  0.32238397  0.12907062    -0.23900
C2316       C  0.11715162  0.32809033  0.09321477     0.18400
C2317       C  0.13084536  0.35392757  0.08185929     0.15600
C2318       C  0.13959682  0.37360633  0.10654021    -0.18900
C2319       C  0.13375355  0.35960401  0.04598164    -0.20700
C2320       C  0.12136417  0.33992562  0.02160446    -0.13300
C2321       C  0.10581670  0.31465577  0.03310193     0.03400
C2322       C  0.10448657  0.30856760  0.06863154    -0.25400
H2323       H  0.12033040  0.33754111  0.18116353     0.08500
H2324       H  0.10471447  0.30270630  0.13811761     0.12100
H2325       H  0.14845055  0.39341325  0.09809326     0.12000
H2326       H  0.14447097  0.37925186  0.03690803     0.11800
H2327       H  0.12250102  0.34459723  0.99395724     0.12300
H2328       H  0.09262480  0.28886621  0.07712057     0.14300
C2329       C  0.12959317  0.29849408  0.86890123    -0.05800
C2330       C  0.13722420  0.29292104  0.83691237    -0.05700
C2331       C  0.15670795  0.31235155  0.81710373    -0.23900
C2332       C  0.16916132  0.33780973  0.82892092     0.18400
C2333       C  0.16219288  0.34361177  0.86146079     0.15600
C2334       C  0.14247433  0.32398719  0.88119705    -0.18900
C2335       C  0.17486638  0.36901221  0.87349469    -0.20700
C2336       C  0.19385167  0.38853541  0.85320961    -0.13300
C2337       C  0.20064927  0.38316660  0.82035506     0.03400
C2338       C  0.18826061  0.35756121  0.80857419    -0.25400
H2339       H  0.12781164  0.27351200  0.82680128     0.08500
H2340       H  0.16187042  0.30747703  0.79234194     0.12100
H2341       H  0.13710083  0.32860334  0.90600460     0.12000
H2342       H  0.16993508  0.37384325  0.89847416     0.11800
H2343       H  0.20305065  0.40796537  0.86321764     0.12300
H2344       H  0.19328857  0.35298760  0.78347191     0.14300
C2345       C  0.10458020  0.47524102  0.47536993    -0.05800
C2346       C  0.09466816  0.48181812  0.44638448    -0.05700
C2347       C  0.10025763  0.47821684  0.41212006    -0.23900
C2348       C  0.11618442  0.46829983  0.40611934     0.18400
C2349       C  0.12586325  0.46117675  0.43508249     0.15600
C2350       C  0.11970516  0.46432141  0.46948834    -0.18900
C2351       C  0.14208042  0.45163062  0.42919683    -0.20700
C2352       C  0.14894600  0.44948706  0.39508685    -0.13300
C2353       C  0.13955285  0.45657687  0.36595673     0.03400
C2354       C  0.12291891  0.46578186  0.37172259    -0.25400
H2355       H  0.08271807  0.49003608  0.45021234     0.08500
H2356       H  0.09254057  0.48368110  0.39035541     0.12100
H2357       H  0.12750049  0.45926027  0.49161247     0.12000
H2358       H  0.14968658  0.44606304  0.45098991     0.11800
H2359       H  0.16161110  0.44207622  0.39160180     0.12300
H2360       H  0.11549383  0.47126175  0.34960701     0.14300
C2361       C  0.12203217  0.66225948  0.66874166    -0.05800
C2362       C  0.12513369  0.66320502  0.63206547    -0.05700
C2363       C  0.12451928  0.64277529  0.61393840    -0.23900
C2364       C  0.12033748  0.62080100  0.63205853     0.18400
C2365       C  0.11824428  0.62015531  0.66907100     0.15600
C2366       C  0.11951268  0.64096692  0.68714327    -0.18900
C2367       C  0.11355215  0.59813756  0.68734698    -0.20700
C2368       C  0.10939418  0.57639113  0.66906944    -0.13300
C2369       C  0.11035526  0.57632168  0.63217863     0.03400
C2370       C  0.11684472  0.59897646  0.61379953    -0.25400
H2371       H  0.12737290  0.67947529  0.61722054     0.08500
H2372       H  0.12633050  0.64376108  0.58561905     0.12100
H2373       H  0.11709880  0.63989700  0.71539375     0.12000
H2374       H  0.11204452  0.59735353  0.71571148     0.11800
H2375       H  0.10474125  0.55926805  0.68383428     0.12300
H2376       H  0.11753214  0.59908464  0.58536654     0.14300
C2377       C  0.20486391  0.45899105  0.72213136    -0.05800
C2378       C  0.19368188  0.46918082  0.74401672    -0.05700
C2379       C  0.17427177  0.47299611  0.73143135    -0.23900
C2380       C  0.16586629  0.46710153  0.69647581     0.18400
C2381       C  0.17790574  0.45824560  0.67361011     0.15600
C2382       C  0.19713263  0.45402073  0.68661585    -0.18900
C2383       C  0.16997919  0.45308651  0.63837943    -0.20700
C2384       C  0.14961451  0.45556243  0.62631046    -0.13300
C2385       C  0.13648140  0.46290376  0.64928559     0.03400
C2386       C  0.14514140  0.46915382  0.68430263    -0.25400
H2387       H  0.19924026  0.47324896  0.77135840     0.08500
H2388       H  0.16546388  0.48006781  0.74928587     0.12100
H2389       H  0.20578429  0.44647846  0.66924464     0.12000
H2390       H  0.17912095  0.44650681  0.62033019     0.11800
H2391       H  0.14334095  0.45050420  0.59934983     0.12300
H2392       H  0.13534140  0.47500036  0.70232587     0.14300
C2393       C  0.96181630  0.50581089  0.45701571    -0.05800
C2394       C  0.98631356  0.52344066  0.44482752    -0.05700
C2395       C  0.00793596  0.52680557  0.46250839    -0.23900
C2396       C  0.00563696  0.51262983  0.49285509     0.18400
C2397       C  0.98124336  0.49485215  0.50551392     0.15600
C2398       C  0.95952216  0.49154533  0.48757917    -0.18900
C2399       C  0.97903958  0.48071156  0.53591638    -0.20700
C2400       C  0.00075440  0.48412472  0.55358123    -0.13300
C2401       C  0.02520528  0.50172537  0.54123927     0.03400
C2402       C  0.02734703  0.51593163  0.51067268    -0.25400
H2403       H  0.98882924  0.53476082  0.42155997     0.08500
H2404       H  0.02650769  0.54055385  0.45241110     0.12100
H2405       H  0.94085924  0.47786813  0.49748913     0.12000
H2406       H  0.96048511  0.46694125  0.54603181     0.11800
H2407       H  0.99837635  0.47281173  0.57680183     0.12300
H2408       H  0.04595296  0.52959395  0.50056937     0.14300
C2409       C  0.87599971  0.46346259  0.87815928    -0.05800
C2410       C  0.86367384  0.47282048  0.89931523    -0.05700
C2411       C  0.85858968  0.49146203  0.88667900    -0.23900
C2412       C  0.86535063  0.50085578  0.85239099     0.18400
C2413       C  0.87681288  0.49085162  0.83035697     0.15600
C2414       C  0.88234530  0.47248144  0.84347278    -0.18900
C2415       C  0.88293810  0.49972939  0.79576147    -0.20700
C2416       C  0.87852312  0.51889464  0.78346564    -0.13300
C2417       C  0.86828320  0.52991127  0.80564489     0.03400
C2418       C  0.86138684  0.52047800  0.84004499    -0.25400
H2419       H  0.85864916  0.46629404  0.92612521     0.08500
H2420       H  0.84964477  0.49876076  0.90390125     0.12100
H2421       H  0.89168593  0.46530874  0.82676062     0.12000
H2422       H  0.89158801  0.49219660  0.77838964     0.11800
H2423       H  0.88423281  0.52593182  0.75697723     0.12300
H2424       H  0.85342093  0.52874431  0.85738958     0.14300
C2425       C  0.78478141  0.25237116  0.77512466    -0.05800
C2426       C  0.80196540  0.27096871  0.75169872    -0.05700
C2427       C  0.82250532  0.29397435  0.76427809    -0.23900
C2428       C  0.82613714  0.29890482  0.80052604     0.18400
C2429       C  0.80833923  0.28087866  0.82422166     0.15600
C2430       C  0.78786619  0.25778656  0.81142204    -0.18900
C2431       C  0.81176453  0.28586985  0.86041776    -0.20700
C2432       C  0.83317427  0.30800492  0.87316987    -0.13300
C2433       C  0.85167452  0.32562378  0.85002150     0.03400
C2434       C  0.84763640  0.32113463  0.81352763    -0.25400
H2435       H  0.80015326  0.26726201  0.72371514     0.08500
H2436       H  0.83591012  0.30762886  0.74567997     0.12100
H2437       H  0.77468404  0.24370311  0.82983637     0.12000
H2438       H  0.79818400  0.27232829  0.87895781     0.11800
H2439       H  0.83562189  0.31089290  0.90129233     0.12300
H2440       H  0.86156919  0.33453393  0.79519536     0.14300
C2441       C  0.93949066  0.33250377  0.91604641    -0.05800
C2442       C  0.93901472  0.32375648  0.95039043    -0.05700
C2443       C  0.95003536  0.30882195  0.95806781    -0.23900
C2444       C  0.96192471  0.30246923  0.93162145     0.18400
C2445       C  0.96182956  0.31038384  0.89687317     0.15600
C2446       C  0.95053794  0.32512131  0.88931394    -0.18900
C2447       C  0.97374887  0.30412534  0.87039852    -0.20700
C2448       C  0.98670037  0.29116027  0.87851255    -0.13300
C2449       C  0.98795186  0.28411505  0.91326295     0.03400
C2450       C  0.97474332  0.28921899  0.93952230    -0.25400
H2451       H  0.93057039  0.32886156  0.97146305     0.08500
H2452       H  0.94980248  0.30276355  0.98489943     0.12100
H2453       H  0.95107504  0.33145857  0.86256092     0.12000
H2454       H  0.97374659  0.30998805  0.84352318     0.11800
H2455       H  0.99664726  0.28764279  0.85782212     0.12300
H2456       H  0.97527197  0.28381480  0.96650486     0.14300
C2457       C  0.95923059  0.44760281  0.79648136    -0.05800
C2458       C  0.95038594  0.44854181  0.76284837    -0.05700
C2459       C  0.96738038  0.45886541  0.73493810    -0.23900
C2460       C  0.99314627  0.46712348  0.74019801     0.18400
C2461       C  0.00215014  0.46673871  0.77435837     0.15600
C2462       C  0.98520584  0.45775523  0.80249358    -0.18900
C2463       C  0.02747746  0.47334465  0.77936832    -0.20700
C2464       C  0.04332703  0.47866163  0.75051057    -0.13300
C2465       C  0.03435427  0.47846753  0.71647921     0.03400
C2466       C  0.00959338  0.47378681  0.71157227    -0.25400
H2467       H  0.93026620  0.44048371  0.75802479     0.08500
H2468       H  0.96015038  0.45890661  0.70892779     0.12100
H2469       H  0.99181606  0.45643747  0.82846410     0.12000
H2470       H  0.03460056  0.47299323  0.80534103     0.11800
H2471       H  0.06239778  0.48223077  0.75464993     0.12300
H2472       H  0.00250193  0.47318561  0.68522704     0.14300
C2473       C  0.03985054  0.53707500  0.02694754    -0.05800
C2474       C  0.04526247  0.52438953  0.00035364    -0.05700
C2475       C  0.02584284  0.50553520  0.97950574    -0.23900
C2476       C  0.00057540  0.49902692  0.98464415     0.18400
C2477       C  0.99495619  0.51168131  0.01122703     0.15600
C2478       C  0.01451949  0.53047841  0.03220424    -0.18900
C2479       C  0.96981263  0.50535106  0.01647493    -0.20700
C2480       C  0.95034065  0.48646102  0.99599833    -0.13300
C2481       C  0.95547833  0.47342915  0.96963511     0.03400
C2482       C  0.98082246  0.48002774  0.96388625    -0.25400
H2483       H  0.06458410  0.52900052  0.99564233     0.08500
H2484       H  0.03060751  0.49608237  0.95934457     0.12100
H2485       H  0.01001291  0.54014503  0.05237749     0.12000
H2486       H  0.96515054  0.51491168  0.03660303     0.11800
H2487       H  0.93109871  0.48199474  0.00101248     0.12300
H2488       H  0.98512214  0.47015107  0.94378623     0.14300
C2489       C  0.96445095  0.19683261  0.70242910    -0.05800
C2490       C  0.94900454  0.19380398  0.73142572    -0.05700
C2491       C  0.95911557  0.19944171  0.76532368    -0.23900
C2492       C  0.98479668  0.20778653  0.77097112     0.18400
C2493       C  0.00058595  0.21110183  0.74199846     0.15600
C2494       C  0.99039819  0.20596468  0.70781888    -0.18900
C2495       C  0.02616099  0.21898915  0.74781520    -0.20700
C2496       C  0.03592894  0.22330062  0.78196605    -0.13300
C2497       C  0.02038615  0.22006501  0.81099881     0.03400
C2498       C  0.99481541  0.21248422  0.80516984    -0.25400
H2499       H  0.92896741  0.18694931  0.72787833     0.08500
H2500       H  0.94674321  0.19684436  0.78717135     0.12100
H2501       H  0.00239371  0.20816665  0.68564139     0.12000
H2502       H  0.03856248  0.22161446  0.72599466     0.11800
H2503       H  0.05577280  0.22933790  0.78558913     0.12300
H2504       H  0.98260578  0.20990687  0.82723444     0.14300
C2505       C  0.86352954  0.08782164  0.55648605    -0.05800
C2506       C  0.84569748  0.06874141  0.57875365    -0.05700
C2507       C  0.82664448  0.04537757  0.56491639    -0.23900
C2508       C  0.82531067  0.04071176  0.52864301     0.18400
C2509       C  0.84384773  0.05940894  0.50630843     0.15600
C2510       C  0.86272882  0.08283717  0.52033486    -0.18900
C2511       C  0.84270546  0.05474353  0.47012877    -0.20700
C2512       C  0.82261071  0.03232302  0.45586977    -0.13300
C2513       C  0.80327432  0.01416045  0.47753472     0.03400
C2514       C  0.80523980  0.01814702  0.51415504    -0.25400
H2515       H  0.84587174  0.07231047  0.60664307     0.08500
H2516       H  0.81260076  0.03124003  0.58244346     0.12100
H2517       H  0.87651153  0.09745224  0.50300907     0.12000
H2518       H  0.85693103  0.06879881  0.45271085     0.11800
H2519       H  0.82172686  0.02970719  0.42767073     0.12300
H2520       H  0.79061826  0.00424702  0.53130431     0.14300
C2521       C  0.00790986  0.20469349  0.53116333    -0.05800
C2522       C  0.02758861  0.21102859  0.55553336    -0.05700
C2523       C  0.05127480  0.21529625  0.54437419    -0.23900
C2524       C  0.05565638  0.21319108  0.50867346     0.18400
C2525       C  0.03549087  0.20528353  0.48438694     0.15600
C2526       C  0.01184660  0.20102960  0.49575733    -0.18900
C2527       C  0.03955237  0.20275911  0.44881005    -0.20700
C2528       C  0.06358362  0.20883383  0.43710015    -0.13300
C2529       C  0.08417084  0.21778029  0.46062841     0.03400
C2530       C  0.07994449  0.21956038  0.49662520    -0.25400
H2531       H  0.02513769  0.21408249  0.58289704     0.08500
H2532       H  0.06641313  0.22109518  0.56348485     0.12100
H2533       H  0.99679425  0.19593239  0.47668084     0.12000
H2534       H  0.02425257  0.19660250  0.42987010     0.11800
H2535       H  0.06621971  0.20727027  0.40930574     0.12300
H2536       H  0.09556633  0.22618830  0.51512906     0.14300
C2537       C  0.85599130  0.16807018  0.62867632    -0.05800
C2538       C  0.84631628  0.18067894  0.60851421    -0.05700
C2539       C  0.82710231  0.18444396  0.62169565    -0.23900
C2540       C  0.81715325  0.17570286  0.65533715     0.18400
C2541       C  0.82678223  0.16317366  0.67600064     0.15600
C2542       C  0.84605156  0.15942745  0.66259400    -0.18900
C2543       C  0.81696982  0.15459937  0.70974499    -0.20700
C2544       C  0.79775957  0.15836893  0.72290651    -0.13300
C2545       C  0.78784646  0.17067787  0.70254278     0.03400
C2546       C  0.79776301  0.17930484  0.66864305    -0.25400
H2547       H  0.85356627  0.18762088  0.58246088     0.08500
H2548       H  0.81999355  0.19418237  0.60552094     0.12100
H2549       H  0.85326194  0.14973064  0.67867894     0.12000
H2550       H  0.82417225  0.14498427  0.72600286     0.11800
H2551       H  0.79061700  0.15156272  0.74904642     0.12300
H2552       H  0.79053114  0.18899568  0.65258994     0.14300
C2553       C  0.99454019  0.28448426  0.58675885    -0.05800
C2554       C  0.99901221  0.29228613  0.62208084    -0.05700
C2555       C  0.01284758  0.31832634  0.63084600    -0.23900
C2556       C  0.02250874  0.33708286  0.60446570     0.18400
C2557       C  0.01862809  0.32956110  0.56889266     0.15600
C2558       C  0.00476633  0.30337928  0.56027378    -0.18900
C2559       C  0.02827069  0.34837799  0.54255439    -0.20700
C2560       C  0.04113883  0.37446291  0.55138561    -0.13300
C2561       C  0.04465086  0.38222204  0.58672760     0.03400
C2562       C  0.03553442  0.36323650  0.61311811    -0.25400
H2563       H  0.99138953  0.27828474  0.64300160     0.08500
H2564       H  0.01567832  0.32380788  0.65830015     0.12100
H2565       H  0.00162233  0.29779587  0.53285343     0.12000
H2566       H  0.02547554  0.34291942  0.51509354     0.11800
H2567       H  0.04780384  0.38852806  0.53053182     0.12300
H2568       H  0.03803212  0.36872561  0.64057188     0.14300
C2569       C  0.88007628  0.36442803  0.02888610    -0.05800
C2570       C  0.88514276  0.38105898  0.05764653    -0.05700
C2571       C  0.88183377  0.37213488  0.09206557    -0.23900
C2572       C  0.87310750  0.34628220  0.09866709     0.18400
C2573       C  0.86786749  0.32929176  0.07011338     0.15600
C2574       C  0.87158730  0.33848576  0.03540564    -0.18900
C2575       C  0.85862636  0.30330948  0.07679745    -0.20700
C2576       C  0.85408961  0.29418471  0.11123741    -0.13300
C2577       C  0.85909209  0.31089038  0.13979497     0.03400
C2578       C  0.86906559  0.33707277  0.13332500    -0.25400
H2579       H  0.89181393  0.40120151  0.05364534     0.08500
H2580       H  0.88588488  0.38544447  0.11351488     0.12100
H2581       H  0.86752684  0.32543718  0.01360616     0.12000
H2582       H  0.85452468  0.28996369  0.05538567     0.11800
H2583       H  0.84658825  0.27391269  0.11555492     0.12300
H2584       H  0.87284614  0.35007274  0.15510743     0.14300
C2585       C  0.67367246  0.14122886  0.33252369    -0.05800
C2586       C  0.67152607  0.14957721  0.29890222    -0.05700
C2587       C  0.69265637  0.16995516  0.28260347    -0.23900
C2588       C  0.71650883  0.18185883  0.29921304     0.18400
C2589       C  0.71863247  0.17395381  0.33339557     0.15600
C2590       C  0.69716736  0.15411362  0.35005847    -0.18900
C2591       C  0.74242641  0.18517303  0.34979154    -0.20700
C2592       C  0.76408352  0.20331530  0.33210542    -0.13300
C2593       C  0.76251124  0.21099892  0.29772744     0.03400
C2594       C  0.73843115  0.20065595  0.28174568    -0.25400
H2595       H  0.65358095  0.13993770  0.28490933     0.08500
H2596       H  0.69054030  0.17572428  0.25647542     0.12100
H2597       H  0.69912628  0.14759369  0.37577255     0.12000
H2598       H  0.74441893  0.17937001  0.37596566     0.11800
H2599       H  0.78225476  0.21109492  0.34532184     0.12300
H2600       H  0.73688432  0.20630352  0.25526996     0.14300
C2601       C  0.88344175  0.43450569  0.35632359    -0.05800
C2602       C  0.88948734  0.43617328  0.32041247    -0.05700
C2603       C  0.88616604  0.41473566  0.30196903    -0.23900
C2604       C  0.87714820  0.39126768  0.31920362     0.18400
C2605       C  0.87025793  0.38916484  0.35500453     0.15600
C2606       C  0.87304073  0.41065952  0.37316970    -0.18900
C2607       C  0.86185938  0.36591467  0.37252133    -0.20700
C2608       C  0.86160579  0.34541808  0.35537534    -0.13300
C2609       C  0.86925314  0.34754009  0.32015229     0.03400
C2610       C  0.87616411  0.37028766  0.30180094    -0.25400
H2611       H  0.89725451  0.45425834  0.30664745     0.08500
H2612       H  0.89147168  0.41674817  0.27454312     0.12100
H2613       H  0.86839543  0.40913529  0.40082859     0.12000
H2614       H  0.85645082  0.36389870  0.39990214     0.11800
H2615       H  0.85611240  0.32806098  0.37005834     0.12300
H2616       H  0.88237994  0.37225982  0.27477747     0.14300
C2617       C  0.87414711  0.23313349  0.36154195    -0.05800
C2618       C  0.90055533  0.24412557  0.36302748    -0.05700
C2619       C  0.91142094  0.23386940  0.38480247    -0.23900
C2620       C  0.89598700  0.21300140  0.40634373     0.18400
C2621       C  0.86924038  0.20129807  0.40439068     0.15600
C2622       C  0.85836165  0.21110745  0.38113185    -0.18900
C2623       C  0.85408325  0.18111606  0.42729171    -0.20700
C2624       C  0.86539656  0.17404742  0.45361961    -0.13300
C2625       C  0.89197419  0.18651168  0.45657227     0.03400
C2626       C  0.90705724  0.20498236  0.43158535    -0.25400
H2627       H  0.91281278  0.26096320  0.34758108     0.08500
H2628       H  0.93192301  0.24300684  0.38601163     0.12100
H2629       H  0.83793287  0.20272142  0.37986291     0.12000
H2630       H  0.83357398  0.17181342  0.42611704     0.11800
H2631       H  0.85340940  0.15958355  0.47247721     0.12300
H2632       H  0.92758783  0.21476449  0.43357156     0.14300
C2633       C  0.95230045  0.35001307  0.24881658    -0.05800
C2634       C  0.96061904  0.35475194  0.21386079    -0.05700
C2635       C  0.98651586  0.37025744  0.20624435    -0.23900
C2636       C  0.00458236  0.38111662  0.23345018     0.18400
C2637       C  0.99639670  0.37754128  0.26858698     0.15600
C2638       C  0.97038773  0.36235605  0.27599101    -0.18900
C2639       C  0.01444978  0.38814916  0.29582355    -0.20700
C2640       C  0.04047487  0.40084305  0.28842377    -0.13300
C2641       C  0.04893687  0.40348235  0.25361411     0.03400
C2642       C  0.03071294  0.39435704  0.22618696    -0.25400
H2643       H  0.94725679  0.34568831  0.19245440     0.08500
H2644       H  0.99250521  0.37294840  0.17908290     0.12100
H2645       H  0.96441887  0.35924538  0.30317996     0.12000
H2646       H  0.00844170  0.38569889  0.32296719     0.11800
H2647       H  0.05391781  0.40768054  0.31002971     0.12300
H2648       H  0.03674737  0.39623820  0.19909942     0.14300
C2649       C  0.83240279  0.20321050  0.20093012    -0.05800
C2650       C  0.85021756  0.19650935  0.21223536    -0.05700
C2651       C  0.85217992  0.17711300  0.19532006    -0.23900
C2652       C  0.83638317  0.16399029  0.16669929     0.18400
C2653       C  0.81843698  0.17054649  0.15501785     0.15600
C2654       C  0.81655221  0.19005852  0.17214168    -0.18900
C2655       C  0.80272200  0.15753220  0.12629965    -0.20700
C2656       C  0.80492271  0.13839838  0.10906518    -0.13300
C2657       C  0.82280170  0.13174482  0.12025585     0.03400
C2658       C  0.83837533  0.14458106  0.14940611    -0.25400
H2659       H  0.86271949  0.20628046  0.23424809     0.08500
H2660       H  0.86609798  0.17240882  0.20461511     0.12100
H2661       H  0.80270741  0.19493528  0.16304079     0.12000
H2662       H  0.78882568  0.16226437  0.11699100     0.11800
H2663       H  0.79262037  0.12886186  0.08678661     0.12300
H2664       H  0.85231106  0.13978141  0.15833596     0.14300
loop_ 
_geom_bond_atom_site_label_1 
_geom_bond_atom_site_label_2 
_geom_bond_distance 
_geom_bond_site_symmetry_2 
_ccdc_geom_bond_type 
O1           Ni7   1.930       .  S
O1           C22   1.275       .  A
O2          Ni25   1.903       .  S
O2           C11   1.262       .  A
O3           Ni7   1.905       .  S
O3          Ni25   1.897       .  S
O3          Ni19   1.932       .  S
O3           H26   0.966       .  S
C4           O21   1.287       .  A
C4           O13   1.278       .  A
C4         C2633   1.492       .  S
O5          Ni24   1.913       .  S
O5           C11   1.267       .  A
O6          Ni24   1.899       .  S
O6            C8   1.267       .  A
Ni7          O10   1.938       .  S
Ni7          O12   1.918       .  S
C8           O18   1.276       .  A
C8         C2609   1.481       .  S
O9          Ni25   1.914       .  S
O9           C15   1.275       .  A
O10          C15   1.279       .  A
C11        C2617   1.458       .  S
O12          C14   1.270       .  A
O13         Ni24   1.922       .  S
C14          O20   1.270       .  A
C14        C2649   1.486       .  S
C15        C2593   1.488       .  S
H16          O17   0.967       .  S
O17         Ni25   1.909       .  S
O17         Ni19   1.893       .  S
O17         Ni24   1.892       .  S
O18         Ni19   1.946       .  S
Ni19         O23   1.918       .  S
Ni19         O21   1.940       .  S
O20         Ni25   1.919       .  S
C22          O23   1.276       .  A
C22        C2577   1.480       .  S
O27         Ni33   1.928       .  S
O27          C48   1.272       .  A
O28         Ni51   1.908       .  S
O28          C37   1.266       .  A
O29         Ni33   1.914       .  S
O29         Ni51   1.909       .  S
O29         Ni45   1.928       .  S
O29          H52   0.966       .  S
C30          O47   1.285       .  A
C30          O39   1.280       .  A
C30        C2553   1.487       .  S
O31         Ni50   1.919       .  S
O31          C37   1.269       .  A
O32         Ni50   1.899       .  S
O32          C34   1.266       .  A
Ni33         O36   1.931       .  S
Ni33         O38   1.904       .  S
C34          O44   1.275       .  A
C34        C2521   1.487   1_655  S
O35         Ni51   1.904       .  S
O35          C41   1.271       .  A
O36          C41   1.276       .  A
C37        C2625   1.475       .  S
O38          C40   1.268       .  A
O39         Ni50   1.923       .  S
C40          O46   1.276       .  A
C40        C2537   1.491       .  S
C41        C2505   1.476       .  S
H42          O43   0.966       .  S
O43         Ni51   1.903       .  S
O43         Ni45   1.893       .  S
O43         Ni50   1.895       .  S
O44         Ni45   1.945       .  S
Ni45         O49   1.912       .  S
Ni45         O47   1.931       .  S
O46         Ni51   1.940       .  S
C48          O49   1.271       .  A
C48        C2489   1.477       .  S
O53         Ni59   1.918       .  S
O53          C74   1.272       .  A
O54         Ni77   1.895       .  S
O54          C63   1.265       .  A
O55         Ni59   1.894       .  S
O55         Ni77   1.896       .  S
O55         Ni71   1.932       .  S
O55          H78   0.966       .  S
C56          O73   1.288       .  A
C56          O65   1.281       .  A
C56        C2441   1.499       .  S
O57         Ni76   1.933       .  S
O57          C63   1.272       .  A
O58         Ni76   1.907       .  S
O58          C60   1.269       .  A
Ni59         O62   1.924       .  S
Ni59         O64   1.908       .  S
C60          O70   1.277       .  A
C60        C2433   1.491       .  S
O61         Ni77   1.929       .  S
O61          C67   1.277       .  A
O62          C67   1.277       .  A
C63        C2457   1.458       .  S
O64          C66   1.269       .  A
O65         Ni76   1.930       .  S
C66          O72   1.275       .  A
C66        C2481   1.487       .  S
C67        C2409   1.486       .  S
H68          O69   0.967       .  S
O69         Ni77   1.904       .  S
O69         Ni71   1.894       .  S
O69         Ni76   1.892       .  S
O70         Ni71   1.944       .  S
Ni71         O75   1.925       .  S
Ni71         O73   1.944       .  S
O72         Ni77   1.937       .  S
C74          O75   1.277       .  A
C74        C2569   1.485   1_556  S
O79         Ni85   1.928       .  S
O79         C100   1.274       .  A
O80        Ni103   1.896       .  S
O80          C89   1.266       .  A
O81         Ni85   1.906       .  S
O81        Ni103   1.899       .  S
O81         Ni97   1.928       .  S
O81         H104   0.966       .  S
C82          O99   1.286       .  A
C82          O91   1.281       .  A
C82        C2561   1.489       .  S
O83        Ni102   1.930       .  S
O83          C89   1.272       .  A
O84        Ni102   1.909       .  S
O84          C86   1.268       .  A
Ni85         O88   1.938       .  S
Ni85         O90   1.913       .  S
C86          O96   1.277       .  A
C86        C2385   1.493       .  S
O87        Ni103   1.907       .  S
O87          C93   1.272       .  A
O88          C93   1.278       .  A
C89        C2465   1.466       .  S
O90          C92   1.269       .  A
O91        Ni102   1.925       .  S
C92          O98   1.278       .  A
C92        C2401   1.498       .  S
C93        C2369   1.481       .  S
H94          O95   0.966       .  S
O95        Ni103   1.892       .  S
O95         Ni97   1.890       .  S
O95        Ni102   1.893       .  S
O96         Ni97   1.951       .  S
Ni97        O101   1.916       .  S
Ni97         O99   1.934       .  S
O98        Ni103   1.947       .  S
C100        O101   1.275       .  A
C100       C2345   1.479       .  S
O105       Ni111   1.935       .  S
O105        C126   1.278       .  A
O106       Ni129   1.871       .  S
O106        C115   1.257   1_556  A
O107       Ni111   1.900       .  S
O107       Ni129   1.889       .  S
O107       Ni123   1.930       .  S
O107        H130   0.965       .  S
C108        O125   1.289       .  A
C108        O117   1.281       .  A
C108       C2449   1.495   1_455  S
O109       Ni128   1.935   1_554  S
O109        C115   1.273       .  A
O110       Ni128   1.908       .  S
O110        C112   1.268       .  A
Ni111       O114   1.946       .  S
Ni111       O116   1.922       .  S
C112        O122   1.275       .  A
C112       C2297   1.484   1_455  S
O113       Ni129   1.913       .  S
O113        C119   1.272       .  A
O114        C119   1.280       .  A
C115       C2321   1.446       .  S
O116        C118   1.271       .  A
O117       Ni128   1.934       .  S
C118        O124   1.272       .  A
C118       C2329   1.489       .  S
C119       C2289   1.494       .  S
H120        O121   0.967       .  S
O121       Ni129   1.893       .  S
O121       Ni123   1.886       .  S
O121       Ni128   1.892       .  S
O122       Ni123   1.946       .  S
Ni123       O127   1.909       .  S
Ni123       O125   1.940       .  S
O124       Ni129   1.925       .  S
C126        O127   1.276       .  A
C126       C2497   1.482       .  S
O131       Ni137   1.923       .  S
O131        C152   1.276       .  A
O132       Ni155   1.873       .  S
O132        C141   1.256       .  A
O133       Ni137   1.909       .  S
O133       Ni155   1.888       .  S
O133       Ni149   1.924       .  S
O133        H156   0.966       .  S
C134        O151   1.284       .  A
C134        O143   1.280       .  A
C134       C2641   1.491       .  S
O135       Ni154   1.932       .  S
O135        C141   1.271       .  A
O136       Ni154   1.891       .  S
O136        C138   1.264       .  A
Ni137       O140   1.937       .  S
Ni137       O142   1.929       .  S
C138        O148   1.280       .  A
C138       C2249   1.478       .  S
O139       Ni155   1.901       .  S
O139        C145   1.269       .  A
O140        C145   1.278       .  A
C141       C2313   1.447       .  S
O142        C144   1.271       .  A
O143       Ni154   1.933       .  S
C144        O150   1.263       .  A
C144       C2265   1.482       .  S
C145       C2241   1.482       .  S
H146        O147   0.966       .  S
O147       Ni155   1.887       .  S
O147       Ni149   1.890       .  S
O147       Ni154   1.886       .  S
O148       Ni149   1.955       .  S
Ni149       O153   1.917       .  S
Ni149       O151   1.928       .  S
O150       Ni155   1.898       .  S
C152        O153   1.278       .  A
C152       C2353   1.483       .  S
O157       Ni163   1.934       .  S
O157        C178   1.273       .  A
O158       Ni181   1.903       .  S
O158        C167   1.270       .  A
O159       Ni163   1.896       .  S
O159       Ni181   1.888       .  S
O159       Ni175   1.888       .  S
O159        H182   0.967       .  S
C160        O177   1.269       .  A
C160        O169   1.280       .  A
C160       C2169   1.482       .  S
O161       Ni180   1.939       .  S
O161        C167   1.279       .  A
O162       Ni180   1.925       .  S
O162        C164   1.271       .  A
Ni163       O166   1.935       .  S
Ni163       O168   1.908       .  S
C164        O174   1.272       .  A
C164       C2217   1.491       .  S
O165       Ni181   1.926       .  S
O165        C171   1.283       .  A
O166        C171   1.281       .  A
C167       C2161   1.479       .  S
O168        C170   1.267       .  A
O169       Ni180   1.945       .  S
C170        O176   1.272       .  A
C170       C2361   1.486       .  S
C171       C2185   1.487       .  S
H172        O173   0.966       .  S
O173       Ni181   1.922       .  S
O173       Ni175   1.893       .  S
O173       Ni180   1.907       .  S
O174       Ni175   1.920       .  S
Ni175       O179   1.886       .  S
Ni175       O177   1.897       .  S
O176       Ni181   1.934       .  S
C178        O179   1.259       .  A
C178       C2201   1.455       .  S
O183       Ni189   1.945       .  S
O183        C204   1.274       .  A
O184       Ni207   1.918       .  S
O184        C193   1.277       .  A
O185       Ni189   1.894       .  S
O185       Ni207   1.892       .  S
O185       Ni201   1.889       .  S
O185        H208   0.967       .  S
C186        O203   1.271       .  A
C186        O195   1.278       .  A
C186       C2097   1.479       .  S
O187       Ni206   1.922       .  S
O187        C193   1.276       .  A
O188       Ni206   1.930       .  S
O188        C190   1.271       .  A
Ni189       O192   1.938       .  S
Ni189       O194   1.909       .  S
C190        O200   1.270       .  A
C190       C2129   1.495       .  S
O191       Ni207   1.923       .  S
O191        C197   1.284   1_455  A
O192        C197   1.282   1_455  A
C193       C2073   1.483       .  S
O194        C196   1.269       .  A
O195       Ni206   1.937       .  S
C196        O202   1.279       .  A
C196       C2105   1.488   1_455  S
C197       C2137   1.490       .  S
H198        O199   0.966       .  S
O199       Ni207   1.921       .  S
O199       Ni201   1.884       .  S
O199       Ni206   1.902       .  S
O200       Ni201   1.924       .  S
Ni201       O205   1.869       .  S
Ni201       O203   1.902       .  S
O202       Ni207   1.956       .  S
C204        O205   1.257       .  A
C204       C2209   1.453       .  S
O209       Ni215   1.934       .  S
O209        C230   1.273       .  A
O210       Ni233   1.916       .  S
O210        C219   1.273       .  A
O211       Ni215   1.898       .  S
O211       Ni233   1.892       .  S
O211       Ni227   1.905       .  S
O211        H234   0.967       .  S
C212        O229   1.278       .  A
C212        O221   1.278       .  A
C212       C2033   1.484       .  S
O213       Ni232   1.928       .  S
O213        C219   1.272       .  A
O214       Ni232   1.904       .  S
O214        C216   1.268       .  A
Ni215       O218   1.935       .  S
Ni215       O220   1.915       .  S
C216        O226   1.276       .  A
C216       C2041   1.490       .  S
O217       Ni233   1.927       .  S
O217        C223   1.285       .  A
O218        C223   1.282       .  A
C219       C2009   1.475       .  S
O220        C222   1.270       .  A
O221       Ni232   1.927       .  S
C222        O228   1.273       .  A
C222       C2417   1.485       .  S
C223       C2193   1.490       .  S
H224        O225   0.966       .  S
O225       Ni233   1.925       .  S
O225       Ni227   1.899       .  S
O225       Ni232   1.898       .  S
O226       Ni227   1.941       .  S
Ni227       O231   1.901       .  S
Ni227       O229   1.928       .  S
O228       Ni233   1.935       .  S
C230        O231   1.266       .  A
C230       C2057   1.468       .  S
O235       Ni241   1.937   1_556  S
O235        C256   1.274       .  A
O236       Ni259   1.923       .  S
O236        C245   1.275       .  A
O237       Ni241   1.896       .  S
O237       Ni259   1.893       .  S
O237       Ni253   1.908       .  S
O237        H260   0.967       .  S
C238        O255   1.280       .  A
C238        O247   1.277       .  A
C238       C1953   1.481       .  S
O239       Ni258   1.918       .  S
O239        C245   1.269       .  A
O240       Ni258   1.907       .  S
O240        C242   1.267       .  A
Ni241       O244   1.939       .  S
Ni241       O246   1.915       .  S
C242        O252   1.272       .  A
C242       C1977   1.485       .  S
O243       Ni259   1.926       .  S
O243        C249   1.284       .  A
O244        C249   1.282       .  A
C245       C2081   1.475       .  S
O246        C248   1.271       .  A
O247       Ni258   1.917       .  S
C248        O254   1.277       .  A
C248       C1961   1.492   1_655  S
C249       C1993   1.492       .  S
H250        O251   0.966       .  S
O251       Ni259   1.923       .  S
O251       Ni253   1.894       .  S
O251       Ni258   1.899       .  S
O252       Ni253   1.930       .  S
Ni253       O257   1.896       .  S
Ni253       O255   1.933       .  S
O254       Ni259   1.946       .  S
C256        O257   1.265   1_556  A
C256       C2065   1.467       .  S
O261       Ni267   1.936       .  S
O261        C282   1.274       .  A
O262       Ni285   1.899       .  S
O262        C271   1.271       .  A
O263       Ni267   1.890       .  S
O263       Ni285   1.879       .  S
O263       Ni279   1.882       .  S
O263        H286   0.968       .  S
C264        O281   1.267       .  A
C264        O273   1.279       .  A
C264       C2257   1.479       .  S
O265       Ni284   1.944       .  S
O265        C271   1.278       .  A
O266       Ni284   1.916       .  S
O266        C268   1.271       .  A
Ni267       O270   1.934       .  S
Ni267       O272   1.916       .  S
C268        O278   1.277       .  A
C268       C2473   1.487       .  S
O269       Ni285   1.929       .  S
O269        C275   1.288       .  A
O270        C275   1.284       .  A
C271       C2153   1.475   1_554  S
O272        C274   1.268       .  A
O273       Ni284   1.946       .  S
C274        O280   1.270       .  A
C274       C1921   1.488       .  S
C275       C2001   1.490       .  S
H276        O277   0.965       .  S
O277       Ni285   1.923       .  S
O277       Ni279   1.897       .  S
O277       Ni284   1.904       .  S
O278       Ni279   1.933       .  S
Ni279       O283   1.896       .  S
Ni279       O281   1.893       .  S
O280       Ni285   1.928       .  S
C282        O283   1.266       .  A
C282       C1937   1.460       .  S
O287       Ni293   1.940       .  S
O287        C308   1.272       .  A
O288       Ni311   1.914       .  S
O288        C297   1.273       .  A
O289       Ni293   1.900       .  S
O289       Ni311   1.901       .  S
O289       Ni305   1.893       .  S
O289        H312   0.967       .  S
C290        O307   1.270       .  A
C290        O299   1.277       .  A
C290       C2601   1.483       .  S
O291       Ni310   1.926       .  S
O291        C297   1.274       .  A
O292       Ni310   1.919       .  S
O292        C294   1.270       .  A
Ni293       O296   1.933       .  S
Ni293       O298   1.895       .  S
C294        O304   1.275       .  A
C294       C2393   1.496       .  S
O295       Ni311   1.922       .  S
O295        C301   1.280       .  A
O296        C301   1.279       .  A
C297       C2017   1.485       .  S
O298        C300   1.266       .  A
O299       Ni310   1.935       .  S
C300        O306   1.277       .  A
C300       C1897   1.485       .  S
C301       C2145   1.488       .  S
H302        O303   0.966       .  S
O303       Ni311   1.922       .  S
O303       Ni305   1.898       .  S
O303       Ni310   1.909       .  S
O304       Ni305   1.934       .  S
Ni305       O309   1.887       .  S
Ni305       O307   1.906       .  S
O306       Ni311   1.952       .  S
C308        O309   1.262       .  A
C308       C1929   1.462       .  S
O313       Ni319   1.945       .  S
O313        C334   1.276       .  A
O314       Ni337   1.897       .  S
O314        C323   1.263       .  A
O315       Ni319   1.921       .  S
O315       Ni337   1.911       .  S
O315       Ni331   1.924       .  S
O315        H338   0.966       .  S
C316        O333   1.282       .  A
C316        O325   1.281       .  A
C316       C1881   1.487       .  S
O317       Ni336   1.933       .  S
O317        C323   1.271       .  A
O318       Ni336   1.907       .  S
O318        C320   1.266       .  A
Ni319       O322   1.946       .  S
Ni319       O324   1.907       .  S
C320        O330   1.269       .  A
C320       C1857   1.477       .  S
O321       Ni337   1.892       .  S
O321        C327   1.266       .  A
O322        C327   1.278       .  A
C323       C1873   1.465       .  S
O324        C326   1.270       .  A
O325       Ni336   1.934       .  S
C326        O332   1.274       .  A
C326       C1985   1.487       .  S
C327       C1905   1.482       .  S
H328        O329   0.967       .  S
O329       Ni337   1.888       .  S
O329       Ni331   1.891       .  S
O329       Ni336   1.905       .  S
O330       Ni331   1.924       .  S
Ni331       O335   1.898       .  S
Ni331       O333   1.920       .  S
O332       Ni337   1.930       .  S
C334        O335   1.267       .  A
C334       C1841   1.485       .  S
O339       Ni345   1.951       .  S
O339        C360   1.279       .  A
O340       Ni363   1.890       .  S
O340        C349   1.263       .  A
O341       Ni345   1.911       .  S
O341       Ni363   1.900       .  S
O341       Ni357   1.924       .  S
O341        H364   0.966       .  S
C342        O359   1.285       .  A
C342        O351   1.282       .  A
C342       C1817   1.490       .  S
O343       Ni362   1.940       .  S
O343        C349   1.273       .  A
O344       Ni362   1.911       .  S
O344        C346   1.267       .  A
Ni345       O348   1.958       .  S
Ni345       O350   1.915       .  S
C346        O356   1.271       .  A
C346       C1801   1.484       .  S
O347       Ni363   1.895       .  S
O347        C353   1.268       .  A
O348        C353   1.282       .  A
C349       C1865   1.459       .  S
O350        C352   1.271       .  A
O351       Ni362   1.934       .  S
C352        O358   1.275       .  A
C352       C2049   1.489       .  S
C353       C2113   1.493       .  S
H354        O355   0.968       .  S
O355       Ni363   1.885       .  S
O355       Ni357   1.887       .  S
O355       Ni362   1.898       .  S
O356       Ni357   1.929       .  S
Ni357       O361   1.901       .  S
Ni357       O359   1.928       .  S
O358       Ni363   1.931       .  S
C360        O361   1.270       .  A
C360       C1785   1.481       .  S
O365       Ni371   1.932       .  S
O365        C386   1.274       .  A
O366       Ni389   1.904       .  S
O366        C375   1.267   1_556  A
O367       Ni371   1.906       .  S
O367       Ni389   1.904       .  S
O367       Ni383   1.918       .  S
O367        H390   0.965       .  S
C368        O385   1.282       .  A
C368        O377   1.280       .  A
C368       C1745   1.475       .  S
O369       Ni388   1.941   1_554  S
O369        C375   1.274       .  A
O370       Ni388   1.917   1_554  S
O370        C372   1.269   1_554  A
Ni371       O374   1.930       .  S
Ni371       O376   1.910       .  S
C372        O382   1.269       .  A
C372       C1945   1.485       .  S
O373       Ni389   1.901       .  S
O373        C379   1.271       .  A
O374        C379   1.277       .  A
C375       C1761   1.474       .  S
O376        C378   1.270       .  A
O377       Ni388   1.930       .  S
C378        O384   1.277       .  A
C378       C1769   1.491       .  S
C379       C1721   1.469       .  S
H380        O381   0.971       .  S
O381       Ni389   1.887       .  S
O381       Ni383   1.896       .  S
O381       Ni388   1.904       .  S
O382       Ni383   1.925       .  S
Ni383       O387   1.914       .  S
Ni383       O385   1.914       .  S
O384       Ni389   1.938       .  S
C386        O387   1.271       .  A
C386       C1793   1.485       .  S
O391       Ni397   1.940       .  S
O391        C412   1.274       .  A
O392       Ni415   1.916       .  S
O392        C401   1.268       .  A
O393       Ni397   1.921       .  S
O393       Ni415   1.921       .  S
O393       Ni409   1.933       .  S
O393        H416   0.966       .  S
C394        O411   1.283       .  A
C394        O403   1.280       .  A
C394       C1889   1.490       .  S
O395       Ni414   1.927       .  S
O395        C401   1.269       .  A
O396       Ni414   1.908       .  S
O396        C398   1.267       .  A
Ni397       O400   1.938       .  S
Ni397       O402   1.898       .  S
C398        O408   1.269       .  A
C398       C1681   1.481       .  S
O399       Ni415   1.911       .  S
O399        C405   1.271       .  A
O400        C405   1.276       .  A
C401       C1753   1.471       .  S
O402        C404   1.269       .  A
O403       Ni414   1.927       .  S
C404        O410   1.277       .  A
C404       C1705   1.483       .  S
C405       C1689   1.489       .  S
H406        O407   0.967       .  S
O407       Ni415   1.897       .  S
O407       Ni409   1.892       .  S
O407       Ni414   1.905       .  S
O408       Ni409   1.920       .  S
Ni409       O413   1.903       .  S
Ni409       O411   1.930       .  S
O410       Ni415   1.936       .  S
C412        O413   1.267       .  A
C412       C1657   1.482       .  S
O417       Ni423   1.943       .  S
O417        C438   1.277       .  A
O418       Ni441   1.889       .  S
O418        C427   1.264       .  A
O419       Ni423   1.910       .  S
O419       Ni441   1.903       .  S
O419       Ni435   1.928       .  S
O419        H442   0.966       .  S
C420        O437   1.285       .  A
C420        O429   1.281       .  A
C420       C1825   1.489       .  S
O421       Ni440   1.939       .  S
O421        C427   1.275       .  A
O422       Ni440   1.928       .  S
O422        C424   1.271       .  A
Ni423       O426   1.946       .  S
Ni423       O428   1.905       .  S
C424        O434   1.267       .  A
C424       C1617   1.487       .  S
O425       Ni441   1.906       .  S
O425        C431   1.271       .  A
O426        C431   1.279       .  A
C427       C1641   1.465       .  S
O428        C430   1.269       .  A
O429       Ni440   1.933       .  S
C430        O436   1.276       .  A
C430       C1625   1.486       .  S
C431       C1593   1.486       .  S
H432        O433   0.968       .  S
O433       Ni441   1.893       .  S
O433       Ni435   1.885       .  S
O433       Ni440   1.909       .  S
O434       Ni435   1.911       .  S
Ni435       O439   1.904       .  S
Ni435       O437   1.929       .  S
O436       Ni441   1.935       .  S
C438        O439   1.269       .  A
C438       C1665   1.480       .  S
O443       Ni449   1.932       .  S
O443        C464   1.274       .  A
O444       Ni467   1.897       .  S
O444        C453   1.263       .  A
O445       Ni449   1.909       .  S
O445       Ni467   1.902       .  S
O445       Ni461   1.926       .  S
O445        H468   0.966       .  S
C446        O463   1.285       .  A
C446        O455   1.280       .  A
C446       C1737   1.477       .  S
O447       Ni466   1.924       .  S
O447        C453   1.270       .  A
O448       Ni466   1.913       .  S
O448        C450   1.269       .  A
Ni449       O452   1.934       .  S
Ni449       O454   1.914       .  S
C450        O460   1.273       .  A
C450       C2025   1.489       .  S
O451       Ni467   1.901       .  S
O451        C457   1.271       .  A
O452        C457   1.278       .  A
C453       C1649   1.466       .  S
O454        C456   1.269       .  A
O455       Ni466   1.920       .  S
C456        O462   1.272       .  A
C456       C1577   1.487       .  S
C457       C1561   1.475       .  S
H458        O459   0.967       .  S
O459       Ni467   1.891       .  S
O459       Ni461   1.889       .  S
O459       Ni466   1.896       .  S
O460       Ni461   1.935       .  S
Ni461       O465   1.916       .  S
Ni461       O463   1.925       .  S
O462       Ni467   1.925       .  S
C464        O465   1.272       .  A
C464       C1833   1.479   1_556  S
O469       Ni475   1.931       .  S
O469        C490   1.271       .  A
O470       Ni493   1.904       .  S
O470        C479   1.267       .  A
O471       Ni475   1.902       .  S
O471       Ni493   1.896       .  S
O471       Ni487   1.899       .  S
O471        H494   0.967       .  S
C472        O489   1.275       .  A
C472        O481   1.277       .  A
C472       C1849   1.478       .  S
O473       Ni492   1.928       .  S
O473        C479   1.272       .  A
O474       Ni492   1.900       .  S
O474        C476   1.268       .  A
Ni475       O478   1.935       .  S
Ni475       O480   1.904       .  S
C476        O486   1.277       .  A
C476       C1633   1.487       .  S
O477       Ni493   1.921       .  S
O477        C483   1.281       .  A
O478        C483   1.280       .  A
C479       C1497   1.473       .  S
O480        C482   1.266       .  A
O481       Ni492   1.924       .  S
C482        O488   1.269       .  A
C482       C1513   1.479       .  S
C483       C1553   1.489       .  S
H484        O485   0.966       .  S
O485       Ni493   1.918       .  S
O485       Ni487   1.902       .  S
O485       Ni492   1.901       .  S
O486       Ni487   1.939       .  S
Ni487       O491   1.907       .  S
Ni487       O489   1.915       .  S
O488       Ni493   1.922       .  S
C490        O491   1.268       .  A
C490       C1537   1.465       .  S
O495       Ni501   1.923       .  S
O495        C516   1.265       .  A
O496       Ni519   1.933       .  S
O496        C505   1.278       .  A
O497       Ni501   1.897       .  S
O497       Ni519   1.910       .  S
O497       Ni513   1.903       .  S
O497        H520   0.966       .  S
C498        O515   1.275       .  A
C498        O507   1.279       .  A
C498       C1673   1.479       .  S
O499       Ni518   1.929       .  S
O499        C505   1.273       .  A
O500       Ni518   1.908       .  S
O500        C502   1.269       .  A
Ni501       O504   1.917       .  S
Ni501       O506   1.889       .  S
C502        O512   1.272       .  A
C502       C1585   1.487       .  S
O503       Ni519   1.947       .  S
O503        C509   1.287       .  A
O504        C509   1.279       .  A
C505       C1473   1.490   1_554  S
O506        C508   1.263       .  A
O507       Ni518   1.932       .  S
C508        O514   1.275       .  A
C508       C2233   1.475       .  S
C509       C1481   1.496       .  S
H510        O511   0.966       .  S
O511       Ni519   1.927       .  S
O511       Ni513   1.902       .  S
O511       Ni518   1.903       .  S
O512       Ni513   1.928       .  S
Ni513       O517   1.912       .  S
Ni513       O515   1.911       .  S
O514       Ni519   1.942       .  S
C516        O517   1.265       .  A
C516       C1529   1.467       .  S
O521       Ni527   1.935       .  S
O521        C542   1.270       .  A
O522       Ni545   1.925       .  S
O522        C531   1.274       .  A
O523       Ni527   1.901       .  S
O523       Ni545   1.904       .  S
O523       Ni539   1.909       .  S
O523        H546   0.966       .  S
C524        O541   1.277       .  A
C524        O533   1.277       .  A
C524       C2529   1.487       .  S
O525       Ni544   1.923       .  S
O525        C531   1.272       .  A
O526       Ni544   1.913       .  S
O526        C528   1.268       .  A
Ni527       O530   1.935       .  S
Ni527       O532   1.898       .  S
C528        O538   1.265       .  A
C528       C2273   1.481       .  S
O529       Ni545   1.920       .  S
O529        C535   1.278       .  A
O530        C535   1.279       .  A
C531       C1417   1.487       .  S
O532        C534   1.268       .  A
O533       Ni544   1.924       .  S
C534        O540   1.280       .  A
C534       C1433   1.482       .  S
C535       C1545   1.489       .  S
H536        O537   0.966       .  S
O537       Ni545   1.924       .  S
O537       Ni539   1.907       .  S
O537       Ni544   1.914       .  S
O538       Ni539   1.911       .  S
Ni539       O543   1.898       .  S
Ni539       O541   1.927       .  S
O540       Ni545   1.955       .  S
C542        O543   1.263       .  A
C542       C1449   1.466       .  S
O547       Ni553   1.926       .  S
O547        C568   1.269       .  A
O548       Ni571   1.910       .  S
O548        C557   1.271       .  A
O549       Ni553   1.900       .  S
O549       Ni571   1.898       .  S
O549       Ni565   1.904       .  S
O549        H572   0.966       .  S
C550        O567   1.276       .  A
C550        O559   1.281       .  A
C550       C2377   1.493       .  S
O551       Ni570   1.948       .  S
O551        C557   1.277       .  A
O552       Ni570   1.909       .  S
O552        C554   1.269       .  A
Ni553       O556   1.925       .  S
Ni553       O558   1.901       .  S
C554        O564   1.274       .  A
C554       C2337   1.491       .  S
O555       Ni571   1.927       .  S
O555        C561   1.281       .  A
O556        C561   1.279       .  A
C557       C1465   1.494       .  S
O558        C560   1.267       .  A
O559       Ni570   1.943       .  S
C560        O566   1.278       .  A
C560       C1601   1.490       .  S
C561       C1409   1.486       .  S
H562        O563   0.966       .  S
O563       Ni571   1.925       .  S
O563       Ni565   1.915       .  S
O563       Ni570   1.915       .  S
O564       Ni565   1.935       .  S
Ni565       O569   1.915       .  S
Ni565       O567   1.921       .  S
O566       Ni571   1.952       .  S
C568        O569   1.267       .  A
C568       C1457   1.473       .  S
O573       Ni579   1.931   1_556  S
O573        C594   1.270       .  A
O574       Ni597   1.927       .  S
O574        C583   1.278       .  A
O575       Ni579   1.893       .  S
O575       Ni597   1.899       .  S
O575       Ni591   1.901       .  S
O575        H598   0.967       .  S
C576        O593   1.275       .  A
C576        O585   1.279       .  A
C576       C1361   1.485       .  S
O577       Ni596   1.924       .  S
O577        C583   1.273       .  A
O578       Ni596   1.914       .  S
O578        C580   1.268       .  A
Ni579       O582   1.932       .  S
Ni579       O584   1.894       .  S
C580        O590   1.270       .  A
C580       C1385   1.489       .  S
O581       Ni597   1.934       .  S
O581        C587   1.285       .  A
O582        C587   1.280       .  A
C583       C1425   1.487       .  S
O584        C586   1.265       .  A
O585       Ni596   1.932       .  S
C586        O592   1.280       .  A
C586       C2281   1.485       .  S
C587       C1489   1.494       .  S
H588        O589   0.966       .  S
O589       Ni597   1.929       .  S
O589       Ni591   1.896       .  S
O589       Ni596   1.904       .  S
O590       Ni591   1.927       .  S
Ni591       O595   1.886       .  S
Ni591       O593   1.919       .  S
O592       Ni597   1.965       .  S
C594        O595   1.261   1_556  A
C594       C1369   1.458       .  S
O599       Ni605   1.938       .  S
O599        C620   1.272       .  A
O600       Ni623   1.896       .  S
O600        C609   1.267       .  A
O601       Ni605   1.909       .  S
O601       Ni623   1.892       .  S
O601       Ni617   1.893       .  S
O601        H624   0.967       .  S
C602        O619   1.269       .  A
C602        O611   1.277       .  A
C602       C1329   1.475       .  S
O603       Ni622   1.935       .  S
O603        C609   1.274       .  A
O604       Ni622   1.911       .  S
O604        C606   1.270       .  A
Ni605       O608   1.938       .  S
Ni605       O610   1.910       .  S
C606        O616   1.273       .  A
C606       C1337   1.488       .  S
O607       Ni623   1.915       .  S
O607        C613   1.280       .  A
O608        C613   1.281       .  A
C609       C1505   1.475       .  S
O610        C612   1.267       .  A
O611       Ni622   1.936       .  S
C612        O618   1.269       .  A
C612       C1569   1.480       .  S
C613       C1401   1.487       .  S
H614        O615   0.966       .  S
O615       Ni623   1.918       .  S
O615       Ni617   1.900       .  S
O615       Ni622   1.915       .  S
O616       Ni617   1.929       .  S
Ni617       O621   1.880       .  S
Ni617       O619   1.897       .  S
O618       Ni623   1.924       .  S
C620        O621   1.260       .  A
C620       C1377   1.454       .  S
O625       Ni631   1.937       .  S
O625        C646   1.274       .  A
O626       Ni649   1.899       .  S
O626        C635   1.271   1_554  A
O627       Ni631   1.897       .  S
O627       Ni649   1.885       .  S
O627       Ni643   1.887       .  S
O627        H650   0.967       .  S
C628        O645   1.269       .  A
C628        O637   1.283       .  A
C628       C1257   1.496       .  S
O629       Ni648   1.953   1_556  S
O629        C635   1.279       .  A
O630       Ni648   1.916       .  S
O630        C632   1.270       .  A
Ni631       O634   1.930       .  S
Ni631       O636   1.917       .  S
C632        O642   1.272       .  A
C632       C1313   1.486       .  S
O633       Ni649   1.930       .  S
O633        C639   1.285       .  A
O634        C639   1.281       .  A
C635       C1241   1.477       .  S
O636        C638   1.269       .  A
O637       Ni648   1.961       .  S
C638        O644   1.273       .  A
C638       C1697   1.489       .  S
C639       C1289   1.489       .  S
H640        O641   0.966       .  S
O641       Ni649   1.925       .  S
O641       Ni643   1.897       .  S
O641       Ni648   1.911       .  S
O642       Ni643   1.926       .  S
Ni643       O647   1.875       .  S
Ni643       O645   1.902       .  S
O644       Ni649   1.936       .  S
C646        O647   1.258       .  A
C646       C1273   1.453       .  S
O651       Ni657   1.935       .  S
O651        C672   1.272       .  A
O652       Ni675   1.898       .  S
O652        C661   1.269       .  A
O653       Ni657   1.904       .  S
O653       Ni675   1.892       .  S
O653       Ni669   1.895       .  S
O653        H676   0.967       .  S
C654        O671   1.271       .  A
C654        O663   1.278       .  A
C654       C1193   1.479       .  S
O655       Ni674   1.933       .  S
O655        C661   1.275       .  A
O656       Ni674   1.923       .  S
O656        C658   1.270       .  A
Ni657       O660   1.939       .  S
Ni657       O662   1.907       .  S
C658        O668   1.271       .  A
C658       C1209   1.495       .  S
O659       Ni675   1.915       .  S
O659        C665   1.279       .  A
O660        C665   1.281       .  A
C661       C1185   1.476       .  S
O662        C664   1.266       .  A
O663       Ni674   1.935       .  S
C664        O670   1.274       .  A
C664       C2585   1.482       .  S
C665       C1233   1.486       .  S
H666        O667   0.966       .  S
O667       Ni675   1.915       .  S
O667       Ni669   1.895       .  S
O667       Ni674   1.913       .  S
O668       Ni669   1.927       .  S
Ni669       O673   1.878       .  S
Ni669       O671   1.901       .  S
O670       Ni675   1.943       .  S
C672        O673   1.259       .  A
C672       C1281   1.451       .  S
O677       Ni683   1.912       .  S
O677        C698   1.266       .  A
O678       Ni701   1.910       .  S
O678        C687   1.273       .  A
O679       Ni683   1.899   1_554  S
O679       Ni701   1.891       .  S
O679       Ni695   1.905       .  S
O679        H702   0.966       .  S
C680        O697   1.272       .  A
C680        O689   1.281       .  A
C680       C2305   1.487       .  S
O681       Ni700   1.947       .  S
O681        C687   1.278       .  A
O682       Ni700   1.919       .  S
O682        C684   1.270       .  A
Ni683       O686   1.921   1_556  S
Ni683       O688   1.898       .  S
C684        O694   1.269       .  A
C684       C2657   1.486       .  S
O685       Ni701   1.928       .  S
O685        C691   1.283       .  A
O686        C691   1.278       .  A
C687       C1153   1.487       .  S
O688        C690   1.266   1_556  A
O689       Ni700   1.946       .  S
C690        O696   1.275       .  A
C690       C1729   1.484   1_544  S
C691       C1297   1.484   1_545  S
H692        O693   0.966       .  S
O693       Ni701   1.925       .  S
O693       Ni695   1.902       .  S
O693       Ni700   1.914       .  S
O694       Ni695   1.917       .  S
Ni695       O699   1.899       .  S
Ni695       O697   1.904       .  S
O696       Ni701   1.940       .  S
C698        O699   1.260   1_556  A
C698       C1161   1.454       .  S
O703       Ni709   1.923       .  S
O703        C724   1.268       .  A
O704       Ni727   1.899       .  S
O704        C713   1.268       .  A
O705       Ni709   1.907       .  S
O705       Ni727   1.894       .  S
O705       Ni721   1.902       .  S
O705        H728   0.966       .  S
C706        O723   1.266       .  A
C706        O715   1.277       .  A
C706       C2425   1.488       .  S
O707       Ni726   1.932       .  S
O707        C713   1.274       .  A
O708       Ni726   1.905       .  S
O708        C710   1.269       .  A
Ni709       O712   1.925       .  S
Ni709       O714   1.900       .  S
C710        O720   1.276       .  A
C710       C2545   1.490       .  S
O711       Ni727   1.948       .  S
O711        C717   1.286       .  A
O712        C717   1.279       .  A
C713       C1177   1.473       .  S
O714        C716   1.266       .  A
O715       Ni726   1.945       .  S
C716        O722   1.271       .  A
C716       C1121   1.481       .  S
C717       C1129   1.497       .  S
H718        O719   0.966       .  S
O719       Ni727   1.940       .  S
O719       Ni721   1.910       .  S
O719       Ni726   1.926       .  S
O720       Ni721   1.938       .  S
Ni721       O725   1.891       .  S
Ni721       O723   1.899       .  S
O722       Ni727   1.932       .  S
C724        O725   1.261       .  A
C724       C1169   1.470       .  S
O729       Ni735   1.929       .  S
O729        C750   1.268       .  A
O730       Ni753   1.913       .  S
O730        C739   1.271       .  A
O731       Ni735   1.905       .  S
O731       Ni753   1.898       .  S
O731       Ni747   1.900       .  S
O731        H754   0.967       .  S
C732        O749   1.273       .  A
C732        O741   1.279       .  A
C732       C1809   1.478       .  S
O733       Ni752   1.941       .  S
O733        C739   1.276       .  A
O734       Ni752   1.907       .  S
O734        C736   1.269       .  A
Ni735       O738   1.930       .  S
Ni735       O740   1.900       .  S
C736        O746   1.273       .  A
C736       C1713   1.483       .  S
O737       Ni753   1.921       .  S
O737        C743   1.281       .  A
O738        C743   1.280       .  A
C739       C1145   1.490       .  S
O740        C742   1.267       .  A
O741       Ni752   1.936       .  S
C742        O748   1.273       .  A
C742       C2513   1.482   1_565  S
C743       C1225   1.487   1_565  S
H744        O745   0.966       .  S
O745       Ni753   1.921       .  S
O745       Ni747   1.906       .  S
O745       Ni752   1.912       .  S
O746       Ni747   1.924       .  S
Ni747       O751   1.907       .  S
Ni747       O749   1.907       .  S
O748       Ni753   1.932       .  S
C750        O751   1.265       .  A
C750       C1097   1.467       .  S
O755       Ni761   1.927       .  S
O755        C776   1.270       .  A
O756       Ni779   1.928       .  S
O756        C765   1.276       .  A
O757       Ni761   1.899       .  S
O757       Ni779   1.900       .  S
O757       Ni773   1.912       .  S
O757        H780   0.967       .  S
C758        O775   1.279       .  A
C758        O767   1.278       .  A
C758       C1609   1.477       .  S
O759       Ni778   1.916       .  S
O759        C765   1.271       .  A
O760       Ni778   1.914       .  S
O760        C762   1.268       .  A
Ni761       O764   1.926       .  S
Ni761       O766   1.909       .  S
C762        O772   1.273       .  A
C762       C1777   1.490       .  S
O763       Ni779   1.948       .  S
O763        C769   1.288       .  A
O764        C769   1.281       .  A
C765       C1249   1.485       .  S
O766        C768   1.269       .  A
O767       Ni778   1.925       .  S
C768        O774   1.276       .  A
C768       C1081   1.493       .  S
C769       C1137   1.500       .  S
H770        O771   0.966       .  S
O771       Ni779   1.935       .  S
O771       Ni773   1.895       .  S
O771       Ni778   1.904       .  S
O772       Ni773   1.932       .  S
Ni773       O777   1.906       .  S
Ni773       O775   1.926       .  S
O774       Ni779   1.943       .  S
C776        O777   1.265       .  A
C776       C1105   1.470       .  S
O781       Ni787   1.946       .  S
O781        C802   1.277       .  A
O782       Ni805   1.909       .  S
O782        C791   1.268   1_556  A
O783       Ni787   1.910       .  S
O783       Ni805   1.914       .  S
O783       Ni799   1.927       .  S
O783        H806   0.966       .  S
C784        O801   1.285       .  A
C784        O793   1.282       .  A
C784       C1057   1.489   1_565  S
O785       Ni804   1.928   1_554  S
O785        C791   1.269       .  A
O786       Ni804   1.910       .  S
O786        C788   1.267       .  A
Ni787       O790   1.942       .  S
Ni787       O792   1.903       .  S
C788        O798   1.271       .  A
C788       C1353   1.487   1_565  S
O789       Ni805   1.914       .  S
O789        C795   1.273       .  A
O790        C795   1.279       .  A
C791       C1065   1.465       .  S
O792        C794   1.271       .  A
O793       Ni804   1.931       .  S
C794        O800   1.278       .  A
C794       C2225   1.494       .  S
C795       C1969   1.491       .  S
H796        O797   0.967       .  S
O797       Ni805   1.901       .  S
O797       Ni799   1.890       .  S
O797       Ni804   1.904       .  S
O798       Ni799   1.931       .  S
Ni799       O803   1.907       .  S
Ni799       O801   1.931       .  S
O800       Ni805   1.950       .  S
C802        O803   1.270       .  A
C802       C1041   1.490       .  S
O807       Ni813   1.939       .  S
O807        C828   1.275       .  A
O808       Ni831   1.910       .  S
O808        C817   1.266       .  A
O809       Ni813   1.912       .  S
O809       Ni831   1.909       .  S
O809       Ni825   1.916       .  S
O809        H832   0.966       .  S
C810        O827   1.278       .  A
C810        O819   1.278       .  A
C810       C1017   1.488       .  S
O811       Ni830   1.930       .  S
O811        C817   1.270       .  A
O812       Ni830   1.899       .  S
O812        C814   1.267       .  A
Ni813       O816   1.932       .  S
Ni813       O818   1.912       .  S
C814        O824   1.279       .  A
C814       C1265   1.491       .  S
O815       Ni831   1.922       .  S
O815        C821   1.277       .  A
O816        C821   1.279       .  A
C817       C1073   1.470       .  S
O818        C820   1.269       .  A
O819       Ni830   1.930       .  S
C820        O826   1.274       .  A
C820       C2121   1.496       .  S
C821       C1913   1.487       .  S
H822        O823   0.967       .  S
O823       Ni831   1.909       .  S
O823       Ni825   1.908       .  S
O823       Ni830   1.906       .  S
O824       Ni825   1.961       .  S
Ni825       O829   1.915       .  S
Ni825       O827   1.921       .  S
O826       Ni831   1.938       .  S
C828        O829   1.272       .  A
C828       C1001   1.489       .  S
O833       Ni839   1.945       .  S
O833        C854   1.278       .  A
O834       Ni857   1.896       .  S
O834        C843   1.263       .  A
O835       Ni839   1.914       .  S
O835       Ni857   1.902       .  S
O835       Ni851   1.924       .  S
O835        H858   0.966       .  S
C836        O853   1.282       .  A
C836        O845   1.280       .  A
C836        C969   1.488       .  S
O837       Ni856   1.931       .  S
O837        C843   1.269       .  A
O838       Ni856   1.893       .  S
O838        C840   1.264       .  A
Ni839       O842   1.951       .  S
Ni839       O844   1.915       .  S
C840        O850   1.275       .  A
C840       C2177   1.479       .  S
O841       Ni857   1.901       .  S
O841        C847   1.270       .  A
O842        C847   1.280       .  A
C843        C993   1.461       .  S
O844        C846   1.271       .  A
O845       Ni856   1.929       .  S
C846        O852   1.275       .  A
C846       C1217   1.495       .  S
C847       C1089   1.488       .  S
H848        O849   0.966       .  S
O849       Ni857   1.896       .  S
O849       Ni851   1.899       .  S
O849       Ni856   1.902       .  S
O850       Ni851   1.945       .  S
Ni851       O855   1.911       .  S
Ni851       O853   1.926       .  S
O852       Ni857   1.936       .  S
C854        O855   1.273       .  A
C854       C1009   1.490       .  S
O859       Ni865   1.927       .  S
O859        C880   1.272       .  A
O860       Ni883   1.894       .  S
O860        C869   1.263       .  A
O861       Ni865   1.905       .  S
O861       Ni883   1.898       .  S
O861       Ni877   1.913       .  S
O861        H884   0.966       .  S
C862        O879   1.277       .  A
C862        O871   1.280       .  A
C862       C1049   1.489       .  S
O863       Ni882   1.934       .  S
O863        C869   1.272       .  A
O864       Ni882   1.899       .  S
O864        C866   1.266       .  A
Ni865       O868   1.925       .  S
Ni865       O870   1.906       .  S
C866        O876   1.274       .  A
C866       C1321   1.483       .  S
O867       Ni883   1.916       .  S
O867        C873   1.275       .  A
O868        C873   1.277       .  A
C869        C985   1.458       .  S
O870        C872   1.268       .  A
O871       Ni882   1.937       .  S
C872        O878   1.273       .  A
C872       C1305   1.488       .  S
C873       C1113   1.478       .  S
H874        O875   0.966       .  S
O875       Ni883   1.904       .  S
O875       Ni877   1.900       .  S
O875       Ni882   1.905       .  S
O876       Ni877   1.938       .  S
Ni877       O881   1.903       .  S
Ni877       O879   1.917       .  S
O878       Ni883   1.933       .  S
C880        O881   1.268       .  A
C880        C953   1.475   1_556  S
O885       Ni891   1.948       .  S
O885        C906   1.277       .  A
O886       Ni909   1.894       .  S
O886        C895   1.261       .  A
O887       Ni891   1.921       .  S
O887       Ni909   1.903       .  S
O887       Ni903   1.913       .  S
O887        H910   0.966       .  S
C888        O905   1.277       .  A
C888        O897   1.279       .  A
C888        C977   1.482   1_545  S
O889       Ni908   1.934       .  S
O889        C895   1.270       .  A
O890       Ni908   1.899       .  S
O890        C892   1.266       .  A
Ni891       O894   1.950       .  S
Ni891       O896   1.924       .  S
C892        O902   1.276       .  A
C892       C2089   1.479   1_545  S
O893       Ni909   1.898       .  S
O893        C899   1.271       .  A
O894        C899   1.281       .  A
C895        C945   1.461       .  S
O896        C898   1.270       .  A
O897       Ni908   1.934       .  S
C898        O904   1.269       .  A
C898       C1345   1.488       .  S
C899       C1441   1.489       .  S
H900        O901   0.966       .  S
O901       Ni909   1.896       .  S
O901       Ni903   1.902       .  S
O901       Ni908   1.909       .  S
O902       Ni903   1.945       .  S
Ni903       O907   1.908       .  S
Ni903       O905   1.914       .  S
O904       Ni909   1.916       .  S
C906        O907   1.270       .  A
C906       C1033   1.485       .  S
O911       Ni917   1.929       .  S
O911        C932   1.273       .  A
O912       Ni935   1.897       .  S
O912        C921   1.261       .  A
O913       Ni917   1.921       .  S
O913       Ni935   1.902       .  S
O913       Ni929   1.918       .  S
O913        H936   0.966       .  S
C914        O931   1.279       .  A
C914        O923   1.280       .  A
C914       C1025   1.485       .  S
O915       Ni934   1.922       .  S
O915        C921   1.266       .  A
O916       Ni934   1.895       .  S
O916        C918   1.265       .  A
Ni917       O920   1.932       .  S
Ni917       O922   1.913       .  S
C918        O928   1.274       .  A
C918       C1201   1.475       .  S
O919       Ni935   1.900       .  S
O919        C925   1.272       .  A
O920        C925   1.277       .  A
C921        C937   1.459       .  S
O922        C924   1.268       .  A
O923       Ni934   1.931       .  S
C924        O930   1.268       .  A
C924       C1393   1.486       .  S
C925       C1521   1.473       .  S
H926        O927   0.966       .  S
O927       Ni935   1.905       .  S
O927       Ni929   1.893       .  S
O927       Ni934   1.906       .  S
O928       Ni929   1.935       .  S
Ni929       O933   1.901       .  S
Ni929       O931   1.918       .  S
O930       Ni935   1.917       .  S
C932        O933   1.268       .  A
C932        C961   1.474       .  S
C937        C938   1.402       .  A
C937        C942   1.399       .  A
C938        C939   1.394       .  A
C938        H947   1.084       .  S
C939        C940   1.401       .  A
C939        H948   1.084       .  S
C940        C946   1.401       .  A
C940        C941   1.417       .  A
C941        C943   1.400       .  A
C941        C942   1.400       .  A
C942        H949   1.085       .  S
C943        C944   1.394       .  A
C943        H950   1.084       .  S
C944        C945   1.402       .  A
C944        H951   1.084       .  S
C945        C946   1.400       .  A
C946        H952   1.085       .  S
C953        C954   1.404       .  A
C953        C958   1.407       .  A
C954        C955   1.397       .  A
C954        H963   1.083   1_554  S
C955        C956   1.403       .  A
C955        H964   1.084       .  S
C956        C962   1.399       .  A
C956        C957   1.412       .  A
C957        C959   1.403       .  A
C957        C958   1.399       .  A
C958        H965   1.084       .  S
C959        C960   1.397       .  A
C959        H966   1.084       .  S
C960        C961   1.404       .  A
C960        H967   1.083       .  S
C961        C962   1.407       .  A
C962        H968   1.084       .  S
C969        C970   1.406       .  A
C969        C974   1.413       .  A
C970        C971   1.399       .  A
C970        H979   1.083       .  S
C971        C972   1.403       .  A
C971        H980   1.084       .  S
C972        C978   1.403       .  A
C972        C973   1.411       .  A
C973        C975   1.405       .  A
C973        C974   1.405       .  A
C974        H981   1.084       .  S
C975        C976   1.400       .  A
C975        H982   1.084       .  S
C976        C977   1.405       .  A
C976        H983   1.083   1_565  S
C977        C978   1.409       .  A
C978        H984   1.084       .  S
C985        C986   1.401       .  A
C985        C990   1.400       .  A
C986        C987   1.394       .  A
C986        H995   1.083       .  S
C987        C988   1.401       .  A
C987        H996   1.084       .  S
C988        C994   1.398   1_545  A
C988        C989   1.417   1_545  A
C989        C991   1.401       .  A
C989        C990   1.399   1_565  A
C990        H997   1.085       .  S
C991        C992   1.394       .  A
C991        H998   1.084       .  S
C992        C993   1.403       .  A
C992        H999   1.083       .  S
C993        C994   1.399       .  A
C994       H1000   1.085       .  S
C1001      C1002   1.406       .  A
C1001      C1006   1.411       .  A
C1002      C1003   1.400       .  A
C1002      H1011   1.083       .  S
C1003      C1004   1.404       .  A
C1003      H1012   1.084       .  S
C1004      C1010   1.407       .  A
C1004      C1005   1.412       .  A
C1005      C1007   1.404       .  A
C1005      C1006   1.407       .  A
C1006      H1013   1.084       .  S
C1007      C1008   1.401       .  A
C1007      H1014   1.084       .  S
C1008      C1009   1.407       .  A
C1008      H1015   1.083       .  S
C1009      C1010   1.411       .  A
C1010      H1016   1.084       .  S
C1017      C1018   1.407       .  A
C1017      C1022   1.409       .  A
C1018      C1019   1.401       .  A
C1018      H1027   1.083       .  S
C1019      C1020   1.404   1_565  A
C1019      H1028   1.084       .  S
C1020      C1026   1.407       .  A
C1020      C1021   1.412       .  A
C1021      C1023   1.402       .  A
C1021      C1022   1.404   1_545  A
C1022      H1029   1.084       .  S
C1023      C1024   1.397       .  A
C1023      H1030   1.084       .  S
C1024      C1025   1.406       .  A
C1024      H1031   1.083       .  S
C1025      C1026   1.410       .  A
C1026      H1032   1.084       .  S
C1033      C1034   1.406   1_545  A
C1033      C1038   1.408       .  A
C1034      C1035   1.400       .  A
C1034      H1043   1.083       .  S
C1035      C1036   1.404       .  A
C1035      H1044   1.084       .  S
C1036      C1042   1.409       .  A
C1036      C1037   1.414   1_565  A
C1037      C1039   1.402       .  A
C1037      C1038   1.408       .  A
C1038      H1045   1.084       .  S
C1039      C1040   1.399       .  A
C1039      H1046   1.084       .  S
C1040      C1041   1.407   1_545  A
C1040      H1047   1.083       .  S
C1041      C1042   1.410       .  A
C1042      H1048   1.084       .  S
C1049      C1050   1.407       .  A
C1049      C1054   1.410       .  A
C1050      C1051   1.401       .  A
C1050      H1059   1.083       .  S
C1051      C1052   1.404       .  A
C1051      H1060   1.084       .  S
C1052      C1058   1.407       .  A
C1052      C1053   1.412       .  A
C1053      C1055   1.403       .  A
C1053      C1054   1.405       .  A
C1054      H1061   1.084       .  S
C1055      C1056   1.399       .  A
C1055      H1062   1.084       .  S
C1056      C1057   1.406       .  A
C1056      H1063   1.083   1_545  S
C1057      C1058   1.412       .  A
C1058      H1064   1.084       .  S
C1065      C1066   1.403       .  A
C1065      C1070   1.400       .  A
C1066      C1067   1.399       .  A
C1066      H1075   1.083       .  S
C1067      C1068   1.404       .  A
C1067      H1076   1.084       .  S
C1068      C1074   1.405       .  A
C1068      C1069   1.416       .  A
C1069      C1071   1.401       .  A
C1069      C1070   1.402       .  A
C1070      H1077   1.085       .  S
C1071      C1072   1.396       .  A
C1071      H1078   1.084       .  S
C1072      C1073   1.403       .  A
C1072      H1079   1.083       .  S
C1073      C1074   1.404       .  A
C1074      H1080   1.085       .  S
C1081      C1082   1.410       .  A
C1081      C1086   1.407       .  A
C1082      C1083   1.403       .  A
C1082      H1091   1.083       .  S
C1083      C1084   1.403       .  A
C1083      H1092   1.083       .  S
C1084      C1090   1.415       .  A
C1084      C1085   1.415       .  A
C1085      C1087   1.399       .  A
C1085      C1086   1.407       .  A
C1086      H1093   1.084       .  S
C1087      C1088   1.395       .  A
C1087      H1094   1.084       .  S
C1088      C1089   1.408       .  A
C1088      H1095   1.083       .  S
C1089      C1090   1.409       .  A
C1090      H1096   1.084       .  S
C1097      C1098   1.402       .  A
C1097      C1102   1.403       .  A
C1098      C1099   1.395       .  A
C1098      H1107   1.084       .  S
C1099      C1100   1.401       .  A
C1099      H1108   1.084       .  S
C1100      C1106   1.402       .  A
C1100      C1101   1.415       .  A
C1101      C1103   1.403       .  A
C1101      C1102   1.404       .  A
C1102      H1109   1.084       .  S
C1103      C1104   1.398       .  A
C1103      H1110   1.084       .  S
C1104      C1105   1.404       .  A
C1104      H1111   1.084       .  S
C1105      C1106   1.402       .  A
C1106      H1112   1.085       .  S
C1113      C1114   1.405       .  A
C1113      C1118   1.408       .  A
C1114      C1115   1.396       .  A
C1114      H1123   1.083       .  S
C1115      C1116   1.401       .  A
C1115      H1124   1.084       .  S
C1116      C1122   1.402       .  A
C1116      C1117   1.413       .  A
C1117      C1119   1.403       .  A
C1117      C1118   1.405       .  A
C1118      H1125   1.084       .  S
C1119      C1120   1.399       .  A
C1119      H1126   1.084       .  S
C1120      C1121   1.406       .  A
C1120      H1127   1.083       .  S
C1121      C1122   1.406       .  A
C1122      H1128   1.084       .  S
C1129      C1130   1.412       .  A
C1129      C1134   1.408       .  A
C1130      C1131   1.399       .  A
C1130      H1139   1.083       .  S
C1131      C1132   1.400       .  A
C1131      H1140   1.084       .  S
C1132      C1138   1.415   1_545  A
C1132      C1133   1.416       .  A
C1133      C1135   1.399       .  A
C1133      C1134   1.415       .  A
C1134      H1141   1.084       .  S
C1135      C1136   1.398   1_545  A
C1135      H1142   1.084       .  S
C1136      C1137   1.413       .  A
C1136      H1143   1.083       .  S
C1137      C1138   1.409       .  A
C1138      H1144   1.084       .  S
C1145      C1146   1.407   1_565  A
C1145      C1150   1.410       .  A
C1146      C1147   1.402       .  A
C1146      H1155   1.083       .  S
C1147      C1148   1.404       .  A
C1147      H1156   1.084       .  S
C1148      C1154   1.409       .  A
C1148      C1149   1.412   1_545  A
C1149      C1151   1.404       .  A
C1149      C1150   1.407       .  A
C1150      H1157   1.084       .  S
C1151      C1152   1.399       .  A
C1151      H1158   1.084       .  S
C1152      C1153   1.405   1_565  A
C1152      H1159   1.083       .  S
C1153      C1154   1.410       .  A
C1154      H1160   1.084       .  S
C1161      C1162   1.400       .  A
C1161      C1166   1.399       .  A
C1162      C1163   1.389       .  A
C1162      H1171   1.084       .  S
C1163      C1164   1.398       .  A
C1163      H1172   1.084       .  S
C1164      C1170   1.395       .  A
C1164      C1165   1.417       .  A
C1165      C1167   1.401       .  A
C1165      C1166   1.403       .  A
C1166      H1173   1.084       .  S
C1167      C1168   1.397       .  A
C1167      H1174   1.084       .  S
C1168      C1169   1.406       .  A
C1168      H1175   1.083       .  S
C1169      C1170   1.401       .  A
C1170      H1176   1.085       .  S
C1177      C1178   1.404       .  A
C1177      C1182   1.405       .  A
C1178      C1179   1.396       .  A
C1178      H1187   1.083       .  S
C1179      C1180   1.402       .  A
C1179      H1188   1.084       .  S
C1180      C1186   1.400       .  A
C1180      C1181   1.413       .  A
C1181      C1183   1.401       .  A
C1181      C1182   1.400       .  A
C1182      H1189   1.084       .  S
C1183      C1184   1.395       .  A
C1183      H1190   1.084       .  S
C1184      C1185   1.406       .  A
C1184      H1191   1.083       .  S
C1185      C1186   1.406       .  A
C1186      H1192   1.084       .  S
C1193      C1194   1.408       .  A
C1193      C1198   1.405       .  A
C1194      C1195   1.392       .  A
C1194      H1203   1.083       .  S
C1195      C1196   1.397       .  A
C1195      H1204   1.084       .  S
C1196      C1202   1.401       .  A
C1196      C1197   1.416       .  A
C1197      C1199   1.402       .  A
C1197      C1198   1.407       .  A
C1198      H1205   1.084       .  S
C1199      C1200   1.398       .  A
C1199      H1206   1.084       .  S
C1200      C1201   1.407       .  A
C1200      H1207   1.083       .  S
C1201      C1202   1.401       .  A
C1202      H1208   1.085       .  S
C1209      C1210   1.409       .  A
C1209      C1214   1.412       .  A
C1210      C1211   1.400   1_545  A
C1210      H1219   1.083       .  S
C1211      C1212   1.403       .  A
C1211      H1220   1.084       .  S
C1212      C1218   1.409       .  A
C1212      C1213   1.412   1_565  A
C1213      C1215   1.404       .  A
C1213      C1214   1.410       .  A
C1214      H1221   1.084       .  S
C1215      C1216   1.402   1_545  A
C1215      H1222   1.083       .  S
C1216      C1217   1.408       .  A
C1216      H1223   1.083       .  S
C1217      C1218   1.412       .  A
C1218      H1224   1.084       .  S
C1225      C1226   1.406       .  A
C1225      C1230   1.411       .  A
C1226      C1227   1.399       .  A
C1226      H1235   1.083       .  S
C1227      C1228   1.404       .  A
C1227      H1236   1.084       .  S
C1228      C1234   1.405       .  A
C1228      C1229   1.411       .  A
C1229      C1231   1.403       .  A
C1229      C1230   1.404       .  A
C1230      H1237   1.084       .  S
C1231      C1232   1.399       .  A
C1231      H1238   1.084       .  S
C1232      C1233   1.406       .  A
C1232      H1239   1.083       .  S
C1233      C1234   1.410       .  A
C1234      H1240   1.084       .  S
C1241      C1242   1.403       .  A
C1241      C1246   1.410       .  A
C1242      C1243   1.393       .  A
C1242      H1251   1.083       .  S
C1243      C1244   1.401       .  A
C1243      H1252   1.084       .  S
C1244      C1250   1.398       .  A
C1244      C1245   1.412       .  A
C1245      C1247   1.407       .  A
C1245      C1246   1.410       .  A
C1246      H1253   1.084       .  S
C1247      C1248   1.405       .  A
C1247      H1254   1.083       .  S
C1248      C1249   1.405       .  A
C1248      H1255   1.083       .  S
C1249      C1250   1.408       .  A
C1250      H1256   1.084       .  S
C1257      C1258   1.412       .  A
C1257      C1262   1.407       .  A
C1258      C1259   1.399       .  A
C1258      H1267   1.083       .  S
C1259      C1260   1.399       .  A
C1259      H1268   1.084       .  S
C1260      C1266   1.415       .  A
C1260      C1261   1.418       .  A
C1261      C1263   1.401       .  A
C1261      C1262   1.417       .  A
C1262      H1269   1.084       .  S
C1263      C1264   1.400       .  A
C1263      H1270   1.083       .  S
C1264      C1265   1.409       .  A
C1264      H1271   1.083       .  S
C1265      C1266   1.407       .  A
C1266      H1272   1.084       .  S
C1273      C1274   1.403       .  A
C1273      C1278   1.395       .  A
C1274      C1275   1.393   1_565  A
C1274      H1283   1.084   1_565  S
C1275      C1276   1.400       .  A
C1275      H1284   1.084       .  S
C1276      C1282   1.397       .  A
C1276      C1277   1.417   1_545  A
C1277      C1279   1.398       .  A
C1277      C1278   1.394       .  A
C1278      H1285   1.085       .  S
C1279      C1280   1.390   1_565  A
C1279      H1286   1.084       .  S
C1280      C1281   1.401       .  A
C1280      H1287   1.084   1_545  S
C1281      C1282   1.397       .  A
C1282      H1288   1.085       .  S
C1289      C1290   1.405       .  A
C1289      C1294   1.414       .  A
C1290      C1291   1.401       .  A
C1290      H1299   1.083       .  S
C1291      C1292   1.406       .  A
C1291      H1300   1.084   1_554  S
C1292      C1298   1.403       .  A
C1292      C1293   1.409       .  A
C1293      C1295   1.405       .  A
C1293      C1294   1.402       .  A
C1294      H1301   1.084       .  S
C1295      C1296   1.399       .  A
C1295      H1302   1.084       .  S
C1296      C1297   1.404       .  A
C1296      H1303   1.083       .  S
C1297      C1298   1.413       .  A
C1298      H1304   1.084       .  S
C1305      C1306   1.409   1_556  A
C1305      C1310   1.408       .  A
C1306      C1307   1.397       .  A
C1306      H1315   1.083       .  S
C1307      C1308   1.400       .  A
C1307      H1316   1.084       .  S
C1308      C1314   1.407   1_545  A
C1308      C1309   1.414   1_544  A
C1309      C1311   1.402       .  A
C1309      C1310   1.408   1_565  A
C1310      H1317   1.084       .  S
C1311      C1312   1.399       .  A
C1311      H1318   1.084       .  S
C1312      C1313   1.407   1_556  A
C1312      H1319   1.083       .  S
C1313      C1314   1.408       .  A
C1314      H1320   1.084       .  S
C1321      C1322   1.409       .  A
C1321      C1326   1.405       .  A
C1322      C1323   1.397       .  A
C1322      H1331   1.083       .  S
C1323      C1324   1.400       .  A
C1323      H1332   1.084       .  S
C1324      C1330   1.405       .  A
C1324      C1325   1.415       .  A
C1325      C1327   1.400       .  A
C1325      C1326   1.404       .  A
C1326      H1333   1.084       .  S
C1327      C1328   1.395       .  A
C1327      H1334   1.084       .  S
C1328      C1329   1.407       .  A
C1328      H1335   1.083       .  S
C1329      C1330   1.403       .  A
C1330      H1336   1.084       .  S
C1337      C1338   1.408       .  A
C1337      C1342   1.407       .  A
C1338      C1339   1.402       .  A
C1338      H1347   1.083       .  S
C1339      C1340   1.404       .  A
C1339      H1348   1.083       .  S
C1340      C1346   1.411       .  A
C1340      C1341   1.414       .  A
C1341      C1343   1.400       .  A
C1341      C1342   1.404       .  A
C1342      H1349   1.084       .  S
C1343      C1344   1.395       .  A
C1343      H1350   1.084       .  S
C1344      C1345   1.408       .  A
C1344      H1351   1.083       .  S
C1345      C1346   1.410       .  A
C1346      H1352   1.084       .  S
C1353      C1354   1.407       .  A
C1353      C1358   1.410   1_556  A
C1354      C1355   1.398       .  A
C1354      H1363   1.083       .  S
C1355      C1356   1.402   1_556  A
C1355      H1364   1.084       .  S
C1356      C1362   1.405       .  A
C1356      C1357   1.413       .  A
C1357      C1359   1.405       .  A
C1357      C1358   1.409       .  A
C1358      H1365   1.084       .  S
C1359      C1360   1.402       .  A
C1359      H1366   1.083       .  S
C1360      C1361   1.405       .  A
C1360      H1367   1.083       .  S
C1361      C1362   1.408       .  A
C1362      H1368   1.084       .  S
C1369      C1370   1.401       .  A
C1369      C1374   1.402       .  A
C1370      C1371   1.393       .  A
C1370      H1379   1.083       .  S
C1371      C1372   1.401       .  A
C1371      H1380   1.084       .  S
C1372      C1378   1.394       .  A
C1372      C1373   1.415       .  A
C1373      C1375   1.404       .  A
C1373      C1374   1.397       .  A
C1374      H1381   1.085       .  S
C1375      C1376   1.396       .  A
C1375      H1382   1.084       .  S
C1376      C1377   1.400       .  A
C1376      H1383   1.083       .  S
C1377      C1378   1.399       .  A
C1378      H1384   1.085       .  S
C1385      C1386   1.408       .  A
C1385      C1390   1.408       .  A
C1386      C1387   1.401       .  A
C1386      H1395   1.083       .  S
C1387      C1388   1.404       .  A
C1387      H1396   1.084       .  S
C1388      C1394   1.408       .  A
C1388      C1389   1.413       .  A
C1389      C1391   1.400       .  A
C1389      C1390   1.403       .  A
C1390      H1397   1.084       .  S
C1391      C1392   1.395       .  A
C1391      H1398   1.084       .  S
C1392      C1393   1.408       .  A
C1392      H1399   1.083       .  S
C1393      C1394   1.410       .  A
C1394      H1400   1.084       .  S
C1401      C1402   1.406       .  A
C1401      C1406   1.413       .  A
C1402      C1403   1.397       .  A
C1402      H1411   1.083       .  S
C1403      C1404   1.402       .  A
C1403      H1412   1.084       .  S
C1404      C1410   1.401       .  A
C1404      C1405   1.411       .  A
C1405      C1407   1.406       .  A
C1405      C1406   1.406       .  A
C1406      H1413   1.084       .  S
C1407      C1408   1.402       .  A
C1407      H1414   1.084       .  S
C1408      C1409   1.406       .  A
C1408      H1415   1.083       .  S
C1409      C1410   1.410       .  A
C1410      H1416   1.084       .  S
C1417      C1418   1.411       .  A
C1417      C1422   1.405       .  A
C1418      C1419   1.395       .  A
C1418      H1427   1.083       .  S
C1419      C1420   1.397       .  A
C1419      H1428   1.084       .  S
C1420      C1426   1.408       .  A
C1420      C1421   1.417       .  A
C1421      C1423   1.398       .  A
C1421      C1422   1.410       .  A
C1422      H1429   1.084       .  S
C1423      C1424   1.396       .  A
C1423      H1430   1.084       .  S
C1424      C1425   1.411       .  A
C1424      H1431   1.083       .  S
C1425      C1426   1.403       .  A
C1426      H1432   1.084       .  S
C1433      C1434   1.408       .  A
C1433      C1438   1.403       .  A
C1434      C1435   1.399       .  A
C1434      H1443   1.083       .  S
C1435      C1436   1.401       .  A
C1435      H1444   1.084       .  S
C1436      C1442   1.412       .  A
C1436      C1437   1.416       .  A
C1437      C1439   1.398       .  A
C1437      C1438   1.407       .  A
C1438      H1445   1.084       .  S
C1439      C1440   1.394       .  A
C1439      H1446   1.084       .  S
C1440      C1441   1.411       .  A
C1440      H1447   1.083       .  S
C1441      C1442   1.407       .  A
C1442      H1448   1.084       .  S
C1449      C1450   1.402       .  A
C1449      C1454   1.403       .  A
C1450      C1451   1.394       .  A
C1450      H1459   1.084       .  S
C1451      C1452   1.400       .  A
C1451      H1460   1.084       .  S
C1452      C1458   1.402       .  A
C1452      C1453   1.416       .  A
C1453      C1455   1.404       .  A
C1453      C1454   1.408       .  A
C1454      H1461   1.084       .  S
C1455      C1456   1.401       .  A
C1455      H1462   1.083       .  S
C1456      C1457   1.404       .  A
C1456      H1463   1.083       .  S
C1457      C1458   1.403       .  A
C1458      H1464   1.085       .  S
C1465      C1466   1.407       .  A
C1465      C1470   1.414       .  A
C1466      C1467   1.400       .  A
C1466      H1475   1.083       .  S
C1467      C1468   1.404       .  A
C1467      H1476   1.084       .  S
C1468      C1474   1.407       .  A
C1468      C1469   1.412       .  A
C1469      C1471   1.407       .  A
C1469      C1470   1.411       .  A
C1470      H1477   1.084       .  S
C1471      C1472   1.404       .  A
C1471      H1478   1.083       .  S
C1472      C1473   1.405       .  A
C1472      H1479   1.083   1_556  S
C1473      C1474   1.411       .  A
C1474      H1480   1.084       .  S
C1481      C1482   1.413       .  A
C1481      C1486   1.408       .  A
C1482      C1483   1.395       .  A
C1482      H1491   1.083       .  S
C1483      C1484   1.397       .  A
C1483      H1492   1.084       .  S
C1484      C1490   1.410       .  A
C1484      C1485   1.416       .  A
C1485      C1487   1.399       .  A
C1485      C1486   1.414       .  A
C1486      H1493   1.084       .  S
C1487      C1488   1.399       .  A
C1487      H1494   1.084       .  S
C1488      C1489   1.413       .  A
C1488      H1495   1.083       .  S
C1489      C1490   1.405       .  A
C1490      H1496   1.084       .  S
C1497      C1498   1.404       .  A
C1497      C1502   1.405       .  A
C1498      C1499   1.397       .  A
C1498      H1507   1.083       .  S
C1499      C1500   1.402       .  A
C1499      H1508   1.084       .  S
C1500      C1506   1.401       .  A
C1500      C1501   1.413       .  A
C1501      C1503   1.401       .  A
C1501      C1502   1.399       .  A
C1502      H1509   1.085       .  S
C1503      C1504   1.394       .  A
C1503      H1510   1.084       .  S
C1504      C1505   1.406       .  A
C1504      H1511   1.083       .  S
C1505      C1506   1.406       .  A
C1506      H1512   1.084       .  S
C1513      C1514   1.407       .  A
C1513      C1518   1.408       .  A
C1514      C1515   1.394       .  A
C1514      H1523   1.083       .  S
C1515      C1516   1.400       .  A
C1515      H1524   1.084       .  S
C1516      C1522   1.398       .  A
C1516      C1517   1.413       .  A
C1517      C1519   1.404       .  A
C1517      C1518   1.403       .  A
C1518      H1525   1.084       .  S
C1519      C1520   1.399       .  A
C1519      H1526   1.084       .  S
C1520      C1521   1.404       .  A
C1520      H1527   1.083       .  S
C1521      C1522   1.404       .  A
C1522      H1528   1.085       .  S
C1529      C1530   1.404       .  A
C1529      C1534   1.401       .  A
C1530      C1531   1.396       .  A
C1530      H1539   1.083       .  S
C1531      C1532   1.401       .  A
C1531      H1540   1.084       .  S
C1532      C1538   1.403       .  A
C1532      C1533   1.417       .  A
C1533      C1535   1.401       .  A
C1533      C1534   1.403       .  A
C1534      H1541   1.085       .  S
C1535      C1536   1.396       .  A
C1535      H1542   1.084       .  S
C1536      C1537   1.403       .  A
C1536      H1543   1.083       .  S
C1537      C1538   1.401       .  A
C1538      H1544   1.085       .  S
C1545      C1546   1.406       .  A
C1545      C1550   1.411       .  A
C1546      C1547   1.401       .  A
C1546      H1555   1.083       .  S
C1547      C1548   1.405       .  A
C1547      H1556   1.084       .  S
C1548      C1554   1.405       .  A
C1548      C1549   1.411       .  A
C1549      C1551   1.404       .  A
C1549      C1550   1.405       .  A
C1550      H1557   1.084       .  S
C1551      C1552   1.400       .  A
C1551      H1558   1.084       .  S
C1552      C1553   1.406       .  A
C1552      H1559   1.083       .  S
C1553      C1554   1.412       .  A
C1554      H1560   1.084       .  S
C1561      C1562   1.403       .  A
C1561      C1566   1.406       .  A
C1562      C1563   1.401       .  A
C1562      H1571   1.083       .  S
C1563      C1564   1.405       .  A
C1563      H1572   1.083       .  S
C1564      C1570   1.406       .  A
C1564      C1565   1.413       .  A
C1565      C1567   1.400       .  A
C1565      C1566   1.399       .  A
C1566      H1573   1.085       .  S
C1567      C1568   1.393       .  A
C1567      H1574   1.084       .  S
C1568      C1569   1.407       .  A
C1568      H1575   1.083       .  S
C1569      C1570   1.408       .  A
C1570      H1576   1.084       .  S
C1577      C1578   1.407       .  A
C1577      C1582   1.411   1_556  A
C1578      C1579   1.397       .  A
C1578      H1587   1.083       .  S
C1579      C1580   1.402   1_556  A
C1579      H1588   1.084       .  S
C1580      C1586   1.403       .  A
C1580      C1581   1.412       .  A
C1581      C1583   1.404       .  A
C1581      C1582   1.406       .  A
C1582      H1589   1.084       .  S
C1583      C1584   1.400       .  A
C1583      H1590   1.084       .  S
C1584      C1585   1.407       .  A
C1584      H1591   1.083       .  S
C1585      C1586   1.409       .  A
C1586      H1592   1.084       .  S
C1593      C1594   1.408       .  A
C1593      C1598   1.407       .  A
C1594      C1595   1.397       .  A
C1594      H1603   1.083       .  S
C1595      C1596   1.400       .  A
C1595      H1604   1.084       .  S
C1596      C1602   1.410       .  A
C1596      C1597   1.416       .  A
C1597      C1599   1.402       .  A
C1597      C1598   1.413       .  A
C1598      H1605   1.084       .  S
C1599      C1600   1.400       .  A
C1599      H1606   1.084       .  S
C1600      C1601   1.409       .  A
C1600      H1607   1.083       .  S
C1601      C1602   1.406       .  A
C1602      H1608   1.084       .  S
C1609      C1610   1.406       .  A
C1609      C1614   1.401       .  A
C1610      C1611   1.403       .  A
C1610      H1619   1.083       .  S
C1611      C1612   1.405       .  A
C1611      H1620   1.083       .  S
C1612      C1618   1.412       .  A
C1612      C1613   1.415       .  A
C1613      C1615   1.396       .  A
C1613      C1614   1.401       .  A
C1614      H1621   1.085       .  S
C1615      C1616   1.391       .  A
C1615      H1622   1.084       .  S
C1616      C1617   1.411       .  A
C1616      H1623   1.083       .  S
C1617      C1618   1.409       .  A
C1618      H1624   1.084       .  S
C1625      C1626   1.410       .  A
C1625      C1630   1.406       .  A
C1626      C1627   1.396       .  A
C1626      H1635   1.083       .  S
C1627      C1628   1.399       .  A
C1627      H1636   1.084       .  S
C1628      C1634   1.408       .  A
C1628      C1629   1.415       .  A
C1629      C1631   1.399       .  A
C1629      C1630   1.407       .  A
C1630      H1637   1.084       .  S
C1631      C1632   1.395       .  A
C1631      H1638   1.084       .  S
C1632      C1633   1.411       .  A
C1632      H1639   1.083       .  S
C1633      C1634   1.405       .  A
C1634      H1640   1.084       .  S
C1641      C1642   1.404       .  A
C1641      C1646   1.400       .  A
C1642      C1643   1.395       .  A
C1642      H1651   1.084       .  S
C1643      C1644   1.400       .  A
C1643      H1652   1.084       .  S
C1644      C1650   1.402       .  A
C1644      C1645   1.417       .  A
C1645      C1647   1.400       .  A
C1645      C1646   1.402       .  A
C1646      H1653   1.084       .  S
C1647      C1648   1.395       .  A
C1647      H1654   1.084       .  S
C1648      C1649   1.404       .  A
C1648      H1655   1.084       .  S
C1649      C1650   1.401       .  A
C1650      H1656   1.084       .  S
C1657      C1658   1.406       .  A
C1657      C1662   1.408       .  A
C1658      C1659   1.397       .  A
C1658      H1667   1.083       .  S
C1659      C1660   1.402       .  A
C1659      H1668   1.084       .  S
C1660      C1666   1.405       .  A
C1660      C1661   1.414       .  A
C1661      C1663   1.403       .  A
C1661      C1662   1.406       .  A
C1662      H1669   1.084       .  S
C1663      C1664   1.399       .  A
C1663      H1670   1.084       .  S
C1664      C1665   1.406       .  A
C1664      H1671   1.083       .  S
C1665      C1666   1.406       .  A
C1666      H1672   1.084       .  S
C1673      C1674   1.405       .  A
C1673      C1678   1.406       .  A
C1674      C1675   1.400       .  A
C1674      H1683   1.083       .  S
C1675      C1676   1.404       .  A
C1675      H1684   1.083       .  S
C1676      C1682   1.406       .  A
C1676      C1677   1.413       .  A
C1677      C1679   1.400       .  A
C1677      C1678   1.401       .  A
C1678      H1685   1.085       .  S
C1679      C1680   1.395       .  A
C1679      H1686   1.084       .  S
C1680      C1681   1.407       .  A
C1680      H1687   1.083       .  S
C1681      C1682   1.408       .  A
C1682      H1688   1.084       .  S
C1689      C1690   1.407       .  A
C1689      C1694   1.408       .  A
C1690      C1691   1.403       .  A
C1690      H1699   1.083       .  S
C1691      C1692   1.404       .  A
C1691      H1700   1.083       .  S
C1692      C1698   1.411       .  A
C1692      C1693   1.413       .  A
C1693      C1695   1.401       .  A
C1693      C1694   1.406       .  A
C1694      H1701   1.084       .  S
C1695      C1696   1.397       .  A
C1695      H1702   1.084       .  S
C1696      C1697   1.408       .  A
C1696      H1703   1.083       .  S
C1697      C1698   1.410       .  A
C1698      H1704   1.084       .  S
C1705      C1706   1.409       .  A
C1705      C1710   1.406       .  A
C1706      C1707   1.394       .  A
C1706      H1715   1.083       .  S
C1707      C1708   1.398       .  A
C1707      H1716   1.084       .  S
C1708      C1714   1.403       .  A
C1708      C1709   1.414       .  A
C1709      C1711   1.401       .  A
C1709      C1710   1.406       .  A
C1710      H1717   1.084       .  S
C1711      C1712   1.397       .  A
C1711      H1718   1.084       .  S
C1712      C1713   1.408       .  A
C1712      H1719   1.083       .  S
C1713      C1714   1.405       .  A
C1714      H1720   1.084       .  S
C1721      C1722   1.405       .  A
C1721      C1726   1.402       .  A
C1722      C1723   1.394   1_556  A
C1722      H1731   1.084   1_556  S
C1723      C1724   1.400   1_554  A
C1723      H1732   1.084       .  S
C1724      C1730   1.404   1_556  A
C1724      C1725   1.416       .  A
C1725      C1727   1.399       .  A
C1725      C1726   1.405       .  A
C1726      H1733   1.084       .  S
C1727      C1728   1.396       .  A
C1727      H1734   1.084       .  S
C1728      C1729   1.409       .  A
C1728      H1735   1.083   1_565  S
C1729      C1730   1.405   1_556  A
C1730      H1736   1.084       .  S
C1737      C1738   1.410       .  A
C1737      C1742   1.403       .  A
C1738      C1739   1.389       .  A
C1738      H1747   1.083       .  S
C1739      C1740   1.395       .  A
C1739      H1748   1.084       .  S
C1740      C1746   1.400       .  A
C1740      C1741   1.417       .  A
C1741      C1743   1.399       .  A
C1741      C1742   1.406       .  A
C1742      H1749   1.084       .  S
C1743      C1744   1.396       .  A
C1743      H1750   1.084       .  S
C1744      C1745   1.409       .  A
C1744      H1751   1.083       .  S
C1745      C1746   1.399       .  A
C1746      H1752   1.084       .  S
C1753      C1754   1.403       .  A
C1753      C1758   1.404       .  A
C1754      C1755   1.398       .  A
C1754      H1763   1.083       .  S
C1755      C1756   1.403       .  A
C1755      H1764   1.084       .  S
C1756      C1762   1.405       .  A
C1756      C1757   1.416       .  A
C1757      C1759   1.403       .  A
C1757      C1758   1.406       .  A
C1758      H1765   1.085       .  S
C1759      C1760   1.399       .  A
C1759      H1766   1.084       .  S
C1760      C1761   1.403       .  A
C1760      H1767   1.083       .  S
C1761      C1762   1.404       .  A
C1762      H1768   1.085       .  S
C1769      C1770   1.406       .  A
C1769      C1774   1.412       .  A
C1770      C1771   1.402       .  A
C1770      H1779   1.083       .  S
C1771      C1772   1.405       .  A
C1771      H1780   1.083       .  S
C1772      C1778   1.409       .  A
C1772      C1773   1.411       .  A
C1773      C1775   1.403       .  A
C1773      C1774   1.405       .  A
C1774      H1781   1.084       .  S
C1775      C1776   1.399       .  A
C1775      H1782   1.084       .  S
C1776      C1777   1.406       .  A
C1776      H1783   1.083       .  S
C1777      C1778   1.412       .  A
C1778      H1784   1.084       .  S
C1785      C1786   1.405       .  A
C1785      C1790   1.408       .  A
C1786      C1787   1.396       .  A
C1786      H1795   1.083       .  S
C1787      C1788   1.401       .  A
C1787      H1796   1.084       .  S
C1788      C1794   1.403       .  A
C1788      C1789   1.414       .  A
C1789      C1791   1.404       .  A
C1789      C1790   1.408       .  A
C1790      H1797   1.084       .  S
C1791      C1792   1.401       .  A
C1791      H1798   1.084       .  S
C1792      C1793   1.407       .  A
C1792      H1799   1.083       .  S
C1793      C1794   1.407       .  A
C1794      H1800   1.084       .  S
C1801      C1802   1.407       .  A
C1801      C1806   1.409       .  A
C1802      C1803   1.396       .  A
C1802      H1811   1.083       .  S
C1803      C1804   1.401       .  A
C1803      H1812   1.084       .  S
C1804      C1810   1.402       .  A
C1804      C1805   1.413       .  A
C1805      C1807   1.405       .  A
C1805      C1806   1.406       .  A
C1806      H1813   1.084       .  S
C1807      C1808   1.401       .  A
C1807      H1814   1.083       .  S
C1808      C1809   1.404       .  A
C1808      H1815   1.083       .  S
C1809      C1810   1.406       .  A
C1810      H1816   1.085       .  S
C1817      C1818   1.405       .  A
C1817      C1822   1.413       .  A
C1818      C1819   1.401       .  A
C1818      H1827   1.083       .  S
C1819      C1820   1.405       .  A
C1819      H1828   1.084       .  S
C1820      C1826   1.405       .  A
C1820      C1821   1.410       .  A
C1821      C1823   1.405       .  A
C1821      C1822   1.404       .  A
C1822      H1829   1.084       .  S
C1823      C1824   1.400       .  A
C1823      H1830   1.084       .  S
C1824      C1825   1.405       .  A
C1824      H1831   1.083       .  S
C1825      C1826   1.414       .  A
C1826      H1832   1.084       .  S
C1833      C1834   1.404       .  A
C1833      C1838   1.406       .  A
C1834      C1835   1.401       .  A
C1834      H1843   1.083       .  S
C1835      C1836   1.405       .  A
C1835      H1844   1.083       .  S
C1836      C1842   1.407       .  A
C1836      C1837   1.413       .  A
C1837      C1839   1.401       .  A
C1837      C1838   1.402       .  A
C1838      H1845   1.085       .  S
C1839      C1840   1.396       .  A
C1839      H1846   1.084       .  S
C1840      C1841   1.407       .  A
C1840      H1847   1.083       .  S
C1841      C1842   1.409       .  A
C1842      H1848   1.084       .  S
C1849      C1850   1.406       .  A
C1849      C1854   1.406       .  A
C1850      C1851   1.398       .  A
C1850      H1859   1.083       .  S
C1851      C1852   1.402       .  A
C1851      H1860   1.084       .  S
C1852      C1858   1.405       .  A
C1852      C1853   1.414       .  A
C1853      C1855   1.401       .  A
C1853      C1854   1.402       .  A
C1854      H1861   1.085       .  S
C1855      C1856   1.395       .  A
C1855      H1862   1.084       .  S
C1856      C1857   1.405       .  A
C1856      H1863   1.083       .  S
C1857      C1858   1.406       .  A
C1858      H1864   1.084       .  S
C1865      C1866   1.401       .  A
C1865      C1870   1.399       .  A
C1866      C1867   1.398       .  A
C1866      H1875   1.083       .  S
C1867      C1868   1.404       .  A
C1867      H1876   1.084       .  S
C1868      C1874   1.401       .  A
C1868      C1869   1.416       .  A
C1869      C1871   1.401       .  A
C1869      C1870   1.398       .  A
C1870      H1877   1.085       .  S
C1871      C1872   1.394       .  A
C1871      H1878   1.084       .  S
C1872      C1873   1.402       .  A
C1872      H1879   1.083       .  S
C1873      C1874   1.403       .  A
C1874      H1880   1.085       .  S
C1881      C1882   1.405       .  A
C1881      C1886   1.413       .  A
C1882      C1883   1.398       .  A
C1882      H1891   1.083       .  S
C1883      C1884   1.403       .  A
C1883      H1892   1.084       .  S
C1884      C1890   1.403       .  A
C1884      C1885   1.411       .  A
C1885      C1887   1.405       .  A
C1885      C1886   1.406       .  A
C1886      H1893   1.084       .  S
C1887      C1888   1.402       .  A
C1887      H1894   1.084       .  S
C1888      C1889   1.406       .  A
C1888      H1895   1.083       .  S
C1889      C1890   1.412       .  A
C1890      H1896   1.084       .  S
C1897      C1898   1.409       .  A
C1897      C1902   1.405       .  A
C1898      C1899   1.396       .  A
C1898      H1907   1.083       .  S
C1899      C1900   1.399       .  A
C1899      H1908   1.084       .  S
C1900      C1906   1.408       .  A
C1900      C1901   1.416       .  A
C1901      C1903   1.399       .  A
C1901      C1902   1.408       .  A
C1902      H1909   1.084       .  S
C1903      C1904   1.396       .  A
C1903      H1910   1.084       .  S
C1904      C1905   1.409       .  A
C1904      H1911   1.083       .  S
C1905      C1906   1.403       .  A
C1906      H1912   1.084       .  S
C1913      C1914   1.407       .  A
C1913      C1918   1.408       .  A
C1914      C1915   1.399       .  A
C1914      H1923   1.083       .  S
C1915      C1916   1.402       .  A
C1915      H1924   1.084       .  S
C1916      C1922   1.409       .  A
C1916      C1917   1.414       .  A
C1917      C1919   1.401       .  A
C1917      C1918   1.408       .  A
C1918      H1925   1.084       .  S
C1919      C1920   1.398       .  A
C1919      H1926   1.084       .  S
C1920      C1921   1.409       .  A
C1920      H1927   1.083       .  S
C1921      C1922   1.409       .  A
C1922      H1928   1.084       .  S
C1929      C1930   1.402       .  A
C1929      C1934   1.400       .  A
C1930      C1931   1.396       .  A
C1930      H1939   1.083       .  S
C1931      C1932   1.402       .  A
C1931      H1940   1.084       .  S
C1932      C1938   1.400   1_655  A
C1932      C1933   1.416   1_655  A
C1933      C1935   1.401       .  A
C1933      C1934   1.399   1_455  A
C1934      H1941   1.085       .  S
C1935      C1936   1.395       .  A
C1935      H1942   1.084       .  S
C1936      C1937   1.401       .  A
C1936      H1943   1.083       .  S
C1937      C1938   1.401       .  A
C1938      H1944   1.085       .  S
C1945      C1946   1.410       .  A
C1945      C1950   1.406   1_556  A
C1946      C1947   1.397       .  A
C1946      H1955   1.083       .  S
C1947      C1948   1.400   1_556  A
C1947      H1956   1.084       .  S
C1948      C1954   1.407       .  A
C1948      C1949   1.415       .  A
C1949      C1951   1.401       .  A
C1949      C1950   1.406       .  A
C1950      H1957   1.084       .  S
C1951      C1952   1.397       .  A
C1951      H1958   1.084       .  S
C1952      C1953   1.406       .  A
C1952      H1959   1.083       .  S
C1953      C1954   1.406       .  A
C1954      H1960   1.084       .  S
C1961      C1962   1.407       .  A
C1961      C1966   1.411   1_554  A
C1962      C1963   1.401       .  A
C1962      H1971   1.083       .  S
C1963      C1964   1.404       .  A
C1963      H1972   1.084       .  S
C1964      C1970   1.409   1_554  A
C1964      C1965   1.412   1_554  A
C1965      C1967   1.404       .  A
C1965      C1966   1.410       .  A
C1966      H1973   1.084   1_455  S
C1967      C1968   1.402       .  A
C1967      H1974   1.083       .  S
C1968      C1969   1.406       .  A
C1968      H1975   1.083       .  S
C1969      C1970   1.411       .  A
C1970      H1976   1.084   1_556  S
C1977      C1978   1.405       .  A
C1977      C1982   1.411       .  A
C1978      C1979   1.398       .  A
C1978      H1987   1.083       .  S
C1979      C1980   1.403       .  A
C1979      H1988   1.084       .  S
C1980      C1986   1.404       .  A
C1980      C1981   1.412       .  A
C1981      C1983   1.404       .  A
C1981      C1982   1.404       .  A
C1982      H1989   1.084       .  S
C1983      C1984   1.399       .  A
C1983      H1990   1.084       .  S
C1984      C1985   1.407       .  A
C1984      H1991   1.083       .  S
C1985      C1986   1.410       .  A
C1986      H1992   1.084       .  S
C1993      C1994   1.406   1_655  A
C1993      C1998   1.414   1_655  A
C1994      C1995   1.400       .  A
C1994      H2003   1.083   1_455  S
C1995      C1996   1.404       .  A
C1995      H2004   1.084       .  S
C1996      C2002   1.405       .  A
C1996      C1997   1.410       .  A
C1997      C1999   1.406       .  A
C1997      C1998   1.407       .  A
C1998      H2005   1.084       .  S
C1999      C2000   1.402       .  A
C1999      H2006   1.083       .  S
C2000      C2001   1.405       .  A
C2000      H2007   1.083       .  S
C2001      C2002   1.413       .  A
C2002      H2008   1.084       .  S
C2009      C2010   1.407       .  A
C2009      C2014   1.401       .  A
C2010      C2011   1.397       .  A
C2010      H2019   1.083       .  S
C2011      C2012   1.401       .  A
C2011      H2020   1.084       .  S
C2012      C2018   1.407       .  A
C2012      C2013   1.416       .  A
C2013      C2015   1.398       .  A
C2013      C2014   1.405       .  A
C2014      H2021   1.084       .  S
C2015      C2016   1.394       .  A
C2015      H2022   1.084       .  S
C2016      C2017   1.410       .  A
C2016      H2023   1.083       .  S
C2017      C2018   1.406       .  A
C2018      H2024   1.084       .  S
C2025      C2026   1.408       .  A
C2025      C2030   1.409       .  A
C2026      C2027   1.399       .  A
C2026      H2035   1.083       .  S
C2027      C2028   1.402       .  A
C2027      H2036   1.084       .  S
C2028      C2034   1.407       .  A
C2028      C2029   1.414       .  A
C2029      C2031   1.403       .  A
C2029      C2030   1.408       .  A
C2030      H2037   1.084       .  S
C2031      C2032   1.400       .  A
C2031      H2038   1.084       .  S
C2032      C2033   1.406       .  A
C2032      H2039   1.083       .  S
C2033      C2034   1.408       .  A
C2034      H2040   1.084       .  S
C2041      C2042   1.411       .  A
C2041      C2046   1.408       .  A
C2042      C2043   1.395       .  A
C2042      H2051   1.083       .  S
C2043      C2044   1.399       .  A
C2043      H2052   1.084       .  S
C2044      C2050   1.407       .  A
C2044      C2045   1.415       .  A
C2045      C2047   1.401       .  A
C2045      C2046   1.410       .  A
C2046      H2053   1.084       .  S
C2047      C2048   1.399       .  A
C2047      H2054   1.084       .  S
C2048      C2049   1.410       .  A
C2048      H2055   1.083       .  S
C2049      C2050   1.407       .  A
C2050      H2056   1.084       .  S
C2057      C2058   1.403       .  A
C2057      C2062   1.402       .  A
C2058      C2059   1.396       .  A
C2058      H2067   1.084       .  S
C2059      C2060   1.401       .  A
C2059      H2068   1.084       .  S
C2060      C2066   1.404       .  A
C2060      C2061   1.416       .  A
C2061      C2063   1.401       .  A
C2061      C2062   1.403       .  A
C2062      H2069   1.084       .  S
C2063      C2064   1.396       .  A
C2063      H2070   1.084       .  S
C2064      C2065   1.404       .  A
C2064      H2071   1.084   1_556  S
C2065      C2066   1.401       .  A
C2066      H2072   1.084       .  S
C2073      C2074   1.410       .  A
C2073      C2078   1.405   1_455  A
C2074      C2075   1.392       .  A
C2074      H2083   1.083       .  S
C2075      C2076   1.396   1_455  A
C2075      H2084   1.084       .  S
C2076      C2082   1.403       .  A
C2076      C2077   1.417       .  A
C2077      C2079   1.400       .  A
C2077      C2078   1.407       .  A
C2078      H2085   1.084       .  S
C2079      C2080   1.397       .  A
C2079      H2086   1.084       .  S
C2080      C2081   1.409       .  A
C2080      H2087   1.083       .  S
C2081      C2082   1.399       .  A
C2082      H2088   1.084   1_655  S
C2089      C2090   1.408       .  A
C2089      C2094   1.402       .  A
C2090      C2091   1.400       .  A
C2090      H2099   1.083   1_565  S
C2091      C2092   1.402       .  A
C2091      H2100   1.084       .  S
C2092      C2098   1.409       .  A
C2092      C2093   1.416       .  A
C2093      C2095   1.397       .  A
C2093      C2094   1.403       .  A
C2094      H2101   1.085       .  S
C2095      C2096   1.392       .  A
C2095      H2102   1.084       .  S
C2096      C2097   1.408       .  A
C2096      H2103   1.084       .  S
C2097      C2098   1.405       .  A
C2098      H2104   1.084       .  S
C2105      C2106   1.409       .  A
C2105      C2110   1.404       .  A
C2106      C2107   1.403       .  A
C2106      H2115   1.083   1_655  S
C2107      C2108   1.403       .  A
C2107      H2116   1.083       .  S
C2108      C2114   1.417       .  A
C2108      C2109   1.417       .  A
C2109      C2111   1.397       .  A
C2109      C2110   1.408       .  A
C2110      H2117   1.084       .  S
C2111      C2112   1.393       .  A
C2111      H2118   1.084       .  S
C2112      C2113   1.412       .  A
C2112      H2119   1.083       .  S
C2113      C2114   1.409       .  A
C2114      H2120   1.084       .  S
C2121      C2122   1.408       .  A
C2121      C2126   1.411       .  A
C2122      C2123   1.404       .  A
C2122      H2131   1.083       .  S
C2123      C2124   1.405       .  A
C2123      H2132   1.083       .  S
C2124      C2130   1.413       .  A
C2124      C2125   1.412       .  A
C2125      C2127   1.402       .  A
C2125      C2126   1.408       .  A
C2126      H2133   1.084       .  S
C2127      C2128   1.398       .  A
C2127      H2134   1.084       .  S
C2128      C2129   1.408       .  A
C2128      H2135   1.083       .  S
C2129      C2130   1.413       .  A
C2130      H2136   1.084       .  S
C2137      C2138   1.405       .  A
C2137      C2142   1.414       .  A
C2138      C2139   1.399       .  A
C2138      H2147   1.083       .  S
C2139      C2140   1.404       .  A
C2139      H2148   1.084       .  S
C2140      C2146   1.404       .  A
C2140      C2141   1.410       .  A
C2141      C2143   1.406       .  A
C2141      C2142   1.406       .  A
C2142      H2149   1.084       .  S
C2143      C2144   1.401       .  A
C2143      H2150   1.084       .  S
C2144      C2145   1.406       .  A
C2144      H2151   1.083       .  S
C2145      C2146   1.411       .  A
C2146      H2152   1.084       .  S
C2153      C2154   1.404       .  A
C2153      C2158   1.408       .  A
C2154      C2155   1.393       .  A
C2154      H2163   1.083   1_556  S
C2155      C2156   1.400       .  A
C2155      H2164   1.084       .  S
C2156      C2162   1.400       .  A
C2156      C2157   1.414       .  A
C2157      C2159   1.404       .  A
C2157      C2158   1.406       .  A
C2158      H2165   1.084       .  S
C2159      C2160   1.401       .  A
C2159      H2166   1.084       .  S
C2160      C2161   1.407       .  A
C2160      H2167   1.083       .  S
C2161      C2162   1.404       .  A
C2162      H2168   1.084       .  S
C2169      C2170   1.409       .  A
C2169      C2174   1.404       .  A
C2170      C2171   1.394       .  A
C2170      H2179   1.084       .  S
C2171      C2172   1.398       .  A
C2171      H2180   1.084       .  S
C2172      C2178   1.406       .  A
C2172      C2173   1.417       .  A
C2173      C2175   1.401       .  A
C2173      C2174   1.410       .  A
C2174      H2181   1.084       .  S
C2175      C2176   1.398       .  A
C2175      H2182   1.083       .  S
C2176      C2177   1.407       .  A
C2176      H2183   1.083       .  S
C2177      C2178   1.403       .  A
C2178      H2184   1.085       .  S
C2185      C2186   1.405       .  A
C2185      C2190   1.412       .  A
C2186      C2187   1.400       .  A
C2186      H2195   1.083       .  S
C2187      C2188   1.405   1_455  A
C2187      H2196   1.084       .  S
C2188      C2194   1.405       .  A
C2188      C2189   1.410       .  A
C2189      C2191   1.405       .  A
C2189      C2190   1.405   1_655  A
C2190      H2197   1.084       .  S
C2191      C2192   1.401       .  A
C2191      H2198   1.084       .  S
C2192      C2193   1.405       .  A
C2192      H2199   1.083       .  S
C2193      C2194   1.413       .  A
C2194      H2200   1.084       .  S
C2201      C2202   1.402       .  A
C2201      C2206   1.396       .  A
C2202      C2203   1.396       .  A
C2202      H2211   1.083       .  S
C2203      C2204   1.401       .  A
C2203      H2212   1.084       .  S
C2204      C2210   1.399       .  A
C2204      C2205   1.417       .  A
C2205      C2207   1.398       .  A
C2205      C2206   1.393       .  A
C2206      H2213   1.085       .  S
C2207      C2208   1.389       .  A
C2207      H2214   1.084       .  S
C2208      C2209   1.402       .  A
C2208      H2215   1.084       .  S
C2209      C2210   1.398       .  A
C2210      H2216   1.084       .  S
C2217      C2218   1.410       .  A
C2217      C2222   1.405       .  A
C2218      C2219   1.406       .  A
C2218      H2227   1.083       .  S
C2219      C2220   1.406       .  A
C2219      H2228   1.083       .  S
C2220      C2226   1.416       .  A
C2220      C2221   1.414       .  A
C2221      C2223   1.396       .  A
C2221      C2222   1.402       .  A
C2222      H2229   1.084       .  S
C2223      C2224   1.391       .  A
C2223      H2230   1.084       .  S
C2224      C2225   1.410       .  A
C2224      H2231   1.083       .  S
C2225      C2226   1.413       .  A
C2226      H2232   1.084       .  S
C2233      C2234   1.408       .  A
C2233      C2238   1.400       .  A
C2234      C2235   1.398       .  A
C2234      H2243   1.083       .  S
C2235      C2236   1.401       .  A
C2235      H2244   1.084       .  S
C2236      C2242   1.409       .  A
C2236      C2237   1.417       .  A
C2237      C2239   1.396       .  A
C2237      C2238   1.403       .  A
C2238      H2245   1.085       .  S
C2239      C2240   1.392       .  A
C2239      H2246   1.084       .  S
C2240      C2241   1.410       .  A
C2240      H2247   1.083       .  S
C2241      C2242   1.405       .  A
C2242      H2248   1.084       .  S
C2249      C2250   1.409       .  A
C2249      C2254   1.400       .  A
C2250      C2251   1.398       .  A
C2250      H2259   1.083       .  S
C2251      C2252   1.400       .  A
C2251      H2260   1.084       .  S
C2252      C2258   1.410       .  A
C2252      C2253   1.418       .  A
C2253      C2255   1.396       .  A
C2253      C2254   1.403       .  A
C2254      H2261   1.085       .  S
C2255      C2256   1.390       .  A
C2255      H2262   1.084       .  S
C2256      C2257   1.409       .  A
C2256      H2263   1.084       .  S
C2257      C2258   1.404       .  A
C2258      H2264   1.084       .  S
C2265      C2266   1.409       .  A
C2265      C2270   1.406       .  A
C2266      C2267   1.392       .  A
C2266      H2275   1.083       .  S
C2267      C2268   1.397       .  A
C2267      H2276   1.084       .  S
C2268      C2274   1.401       .  A
C2268      C2269   1.415       .  A
C2269      C2271   1.401       .  A
C2269      C2270   1.407       .  A
C2270      H2277   1.084       .  S
C2271      C2272   1.398       .  A
C2271      H2278   1.084       .  S
C2272      C2273   1.409       .  A
C2272      H2279   1.083       .  S
C2273      C2274   1.403       .  A
C2274      H2280   1.084       .  S
C2281      C2282   1.408   1_554  A
C2281      C2286   1.406       .  A
C2282      C2283   1.399       .  A
C2282      H2291   1.083       .  S
C2283      C2284   1.401       .  A
C2283      H2292   1.084       .  S
C2284      C2290   1.412       .  A
C2284      C2285   1.416   1_556  A
C2285      C2287   1.400       .  A
C2285      C2286   1.411       .  A
C2286      H2293   1.084       .  S
C2287      C2288   1.398       .  A
C2287      H2294   1.084       .  S
C2288      C2289   1.411   1_554  A
C2288      H2295   1.083       .  S
C2289      C2290   1.407       .  A
C2290      H2296   1.084       .  S
C2297      C2298   1.407   1_556  A
C2297      C2302   1.406       .  A
C2298      C2299   1.400       .  A
C2298      H2307   1.083   1_655  S
C2299      C2300   1.402       .  A
C2299      H2308   1.083       .  S
C2300      C2306   1.411       .  A
C2300      C2301   1.416   1_554  A
C2301      C2303   1.399       .  A
C2301      C2302   1.407       .  A
C2302      H2309   1.084       .  S
C2303      C2304   1.395       .  A
C2303      H2310   1.084       .  S
C2304      C2305   1.409   1_556  A
C2304      H2311   1.083       .  S
C2305      C2306   1.407       .  A
C2306      H2312   1.084       .  S
C2313      C2314   1.401       .  A
C2313      C2318   1.395       .  A
C2314      C2315   1.390       .  A
C2314      H2323   1.084       .  S
C2315      C2316   1.399       .  A
C2315      H2324   1.084       .  S
C2316      C2322   1.392       .  A
C2316      C2317   1.417       .  A
C2317      C2319   1.399       .  A
C2317      C2318   1.393       .  A
C2318      H2325   1.085       .  S
C2319      C2320   1.391       .  A
C2319      H2326   1.084       .  S
C2320      C2321   1.401       .  A
C2320      H2327   1.084   1_554  S
C2321      C2322   1.394       .  A
C2322      H2328   1.085       .  S
C2329      C2330   1.408       .  A
C2329      C2334   1.409       .  A
C2330      C2331   1.399       .  A
C2330      H2339   1.083       .  S
C2331      C2332   1.402       .  A
C2331      H2340   1.084       .  S
C2332      C2338   1.409       .  A
C2332      C2333   1.414       .  A
C2333      C2335   1.401       .  A
C2333      C2334   1.408       .  A
C2334      H2341   1.084       .  S
C2335      C2336   1.399       .  A
C2335      H2342   1.084       .  S
C2336      C2337   1.410       .  A
C2336      H2343   1.083       .  S
C2337      C2338   1.409       .  A
C2338      H2344   1.084       .  S
C2345      C2346   1.408       .  A
C2345      C2350   1.402       .  A
C2346      C2347   1.396       .  A
C2346      H2355   1.083       .  S
C2347      C2348   1.399       .  A
C2347      H2356   1.084       .  S
C2348      C2354   1.407       .  A
C2348      C2349   1.416       .  A
C2349      C2351   1.397       .  A
C2349      C2350   1.405       .  A
C2350      H2357   1.084       .  S
C2351      C2352   1.394       .  A
C2351      H2358   1.084       .  S
C2352      C2353   1.411       .  A
C2352      H2359   1.083       .  S
C2353      C2354   1.404       .  A
C2354      H2360   1.084       .  S
C2361      C2362   1.408       .  A
C2361      C2366   1.406       .  A
C2362      C2363   1.401       .  A
C2362      H2371   1.083       .  S
C2363      C2364   1.403       .  A
C2363      H2372   1.083       .  S
C2364      C2370   1.410       .  A
C2364      C2365   1.415       .  A
C2365      C2367   1.399       .  A
C2365      C2366   1.403       .  A
C2366      H2373   1.084       .  S
C2367      C2368   1.394       .  A
C2367      H2374   1.084       .  S
C2368      C2369   1.407       .  A
C2368      H2375   1.084       .  S
C2369      C2370   1.407       .  A
C2370      H2376   1.084       .  S
C2377      C2378   1.406       .  A
C2377      C2382   1.412       .  A
C2378      C2379   1.402       .  A
C2378      H2387   1.083       .  S
C2379      C2380   1.404       .  A
C2379      H2388   1.083       .  S
C2380      C2386   1.411       .  A
C2380      C2381   1.413       .  A
C2381      C2383   1.405       .  A
C2381      C2382   1.412       .  A
C2382      H2389   1.084       .  S
C2383      C2384   1.403       .  A
C2383      H2390   1.083       .  S
C2384      C2385   1.406       .  A
C2384      H2391   1.083       .  S
C2385      C2386   1.412       .  A
C2386      H2392   1.084       .  S
C2393      C2394   1.407       .  A
C2393      C2398   1.414       .  A
C2394      C2395   1.400   1_655  A
C2394      H2403   1.083       .  S
C2395      C2396   1.404       .  A
C2395      H2404   1.084       .  S
C2396      C2402   1.409       .  A
C2396      C2397   1.411   1_455  A
C2397      C2399   1.406       .  A
C2397      C2398   1.411       .  A
C2398      H2405   1.084       .  S
C2399      C2400   1.404   1_655  A
C2399      H2406   1.083       .  S
C2400      C2401   1.407       .  A
C2400      H2407   1.083   1_455  S
C2401      C2402   1.414       .  A
C2402      H2408   1.084       .  S
C2409      C2410   1.407       .  A
C2409      C2414   1.408       .  A
C2410      C2411   1.399       .  A
C2410      H2419   1.083       .  S
C2411      C2412   1.402       .  A
C2411      H2420   1.084       .  S
C2412      C2418   1.408       .  A
C2412      C2413   1.414       .  A
C2413      C2415   1.402       .  A
C2413      C2414   1.408       .  A
C2414      H2421   1.084       .  S
C2415      C2416   1.399       .  A
C2415      H2422   1.084       .  S
C2416      C2417   1.407       .  A
C2416      H2423   1.083       .  S
C2417      C2418   1.408       .  A
C2418      H2424   1.084       .  S
C2425      C2426   1.405       .  A
C2425      C2430   1.411       .  A
C2426      C2427   1.402       .  A
C2426      H2435   1.083       .  S
C2427      C2428   1.405       .  A
C2427      H2436   1.083       .  S
C2428      C2434   1.408       .  A
C2428      C2429   1.412       .  A
C2429      C2431   1.403       .  A
C2429      C2430   1.406       .  A
C2430      H2437   1.084       .  S
C2431      C2432   1.400       .  A
C2431      H2438   1.084       .  S
C2432      C2433   1.406       .  A
C2432      H2439   1.083       .  S
C2433      C2434   1.413       .  A
C2434      H2440   1.084       .  S
C2441      C2442   1.406       .  A
C2441      C2446   1.417       .  A
C2442      C2443   1.405       .  A
C2442      H2451   1.083       .  S
C2443      C2444   1.408       .  A
C2443      H2452   1.084       .  S
C2444      C2450   1.409       .  A
C2444      C2445   1.409       .  A
C2445      C2447   1.407       .  A
C2445      C2446   1.407       .  A
C2446      H2453   1.084       .  S
C2447      C2448   1.403       .  A
C2447      H2454   1.083       .  S
C2448      C2449   1.404       .  A
C2448      H2455   1.083       .  S
C2449      C2450   1.418       .  A
C2450      H2456   1.084       .  S
C2457      C2458   1.401       .  A
C2457      C2462   1.399       .  A
C2458      C2459   1.397       .  A
C2458      H2467   1.083       .  S
C2459      C2460   1.403       .  A
C2459      H2468   1.084       .  S
C2460      C2466   1.400   1_655  A
C2460      C2461   1.415   1_655  A
C2461      C2463   1.401       .  A
C2461      C2462   1.398   1_455  A
C2462      H2469   1.085       .  S
C2463      C2464   1.394       .  A
C2463      H2470   1.084       .  S
C2464      C2465   1.403       .  A
C2464      H2471   1.083       .  S
C2465      C2466   1.403       .  A
C2466      H2472   1.085       .  S
C2473      C2474   1.410       .  A
C2473      C2478   1.405       .  A
C2474      C2475   1.400   1_554  A
C2474      H2483   1.083   1_554  S
C2475      C2476   1.402       .  A
C2475      H2484   1.084       .  S
C2476      C2482   1.410   1_455  A
C2476      C2477   1.415   1_456  A
C2477      C2479   1.398       .  A
C2477      C2478   1.405   1_655  A
C2478      H2485   1.084       .  S
C2479      C2480   1.394   1_554  A
C2479      H2486   1.084       .  S
C2480      C2481   1.409       .  A
C2480      H2487   1.083   1_556  S
C2481      C2482   1.408       .  A
C2482      H2488   1.084       .  S
C2489      C2490   1.407       .  A
C2489      C2494   1.404       .  A
C2490      C2491   1.395       .  A
C2490      H2499   1.083       .  S
C2491      C2492   1.399       .  A
C2491      H2500   1.084       .  S
C2492      C2498   1.403       .  A
C2492      C2493   1.415   1_655  A
C2493      C2495   1.400       .  A
C2493      C2494   1.406   1_455  A
C2494      H2501   1.084   1_655  S
C2495      C2496   1.397       .  A
C2495      H2502   1.084       .  S
C2496      C2497   1.409       .  A
C2496      H2503   1.083       .  S
C2497      C2498   1.404   1_455  A
C2498      H2504   1.084       .  S
C2505      C2506   1.404       .  A
C2505      C2510   1.405       .  A
C2506      C2507   1.399       .  A
C2506      H2515   1.083       .  S
C2507      C2508   1.404       .  A
C2507      H2516   1.084       .  S
C2508      C2514   1.403       .  A
C2508      C2509   1.413       .  A
C2509      C2511   1.401       .  A
C2509      C2510   1.401       .  A
C2510      H2517   1.085       .  S
C2511      C2512   1.396       .  A
C2511      H2518   1.084       .  S
C2512      C2513   1.406       .  A
C2512      H2519   1.083       .  S
C2513      C2514   1.410       .  A
C2514      H2520   1.084       .  S
C2521      C2522   1.406       .  A
C2521      C2526   1.408       .  A
C2522      C2523   1.404       .  A
C2522      H2531   1.083       .  S
C2523      C2524   1.406       .  A
C2523      H2532   1.083       .  S
C2524      C2530   1.410       .  A
C2524      C2525   1.413       .  A
C2525      C2527   1.401       .  A
C2525      C2526   1.404       .  A
C2526      H2533   1.084   1_455  S
C2527      C2528   1.396       .  A
C2527      H2534   1.084       .  S
C2528      C2529   1.407       .  A
C2528      H2535   1.083       .  S
C2529      C2530   1.411       .  A
C2530      H2536   1.084       .  S
C2537      C2538   1.406       .  A
C2537      C2542   1.413       .  A
C2538      C2539   1.401       .  A
C2538      H2547   1.083       .  S
C2539      C2540   1.404       .  A
C2539      H2548   1.083       .  S
C2540      C2546   1.407       .  A
C2540      C2541   1.411       .  A
C2541      C2543   1.404       .  A
C2541      C2542   1.406       .  A
C2542      H2549   1.084       .  S
C2543      C2544   1.400       .  A
C2543      H2550   1.084       .  S
C2544      C2545   1.407       .  A
C2544      H2551   1.083       .  S
C2545      C2546   1.412       .  A
C2546      H2552   1.084       .  S
C2553      C2554   1.405       .  A
C2553      C2558   1.413   1_655  A
C2554      C2555   1.399   1_655  A
C2554      H2563   1.083       .  S
C2555      C2556   1.404       .  A
C2555      H2564   1.084       .  S
C2556      C2562   1.403       .  A
C2556      C2557   1.410       .  A
C2557      C2559   1.405       .  A
C2557      C2558   1.405       .  A
C2558      H2565   1.084       .  S
C2559      C2560   1.401       .  A
C2559      H2566   1.084       .  S
C2560      C2561   1.405       .  A
C2560      H2567   1.083       .  S
C2561      C2562   1.413       .  A
C2562      H2568   1.084       .  S
C2569      C2570   1.411       .  A
C2569      C2574   1.404       .  A
C2570      C2571   1.394       .  A
C2570      H2579   1.083       .  S
C2571      C2572   1.397       .  A
C2571      H2580   1.084       .  S
C2572      C2578   1.406       .  A
C2572      C2573   1.417       .  A
C2573      C2575   1.399       .  A
C2573      C2574   1.408       .  A
C2574      H2581   1.084       .  S
C2575      C2576   1.397       .  A
C2575      H2582   1.084       .  S
C2576      C2577   1.409       .  A
C2576      H2583   1.083       .  S
C2577      C2578   1.402       .  A
C2578      H2584   1.084       .  S
C2585      C2586   1.407       .  A
C2585      C2590   1.404       .  A
C2586      C2587   1.402       .  A
C2586      H2595   1.083       .  S
C2587      C2588   1.404       .  A
C2587      H2596   1.083       .  S
C2588      C2594   1.412       .  A
C2588      C2589   1.415       .  A
C2589      C2591   1.399       .  A
C2589      C2590   1.405       .  A
C2590      H2597   1.085       .  S
C2591      C2592   1.394       .  A
C2591      H2598   1.084       .  S
C2592      C2593   1.409       .  A
C2592      H2599   1.083       .  S
C2593      C2594   1.409       .  A
C2594      H2600   1.084       .  S
C2601      C2602   1.409       .  A
C2601      C2606   1.404       .  A
C2602      C2603   1.397       .  A
C2602      H2611   1.083       .  S
C2603      C2604   1.401       .  A
C2603      H2612   1.084       .  S
C2604      C2610   1.407       .  A
C2604      C2605   1.416       .  A
C2605      C2607   1.400       .  A
C2605      C2606   1.406       .  A
C2606      H2613   1.084       .  S
C2607      C2608   1.396       .  A
C2607      H2614   1.084       .  S
C2608      C2609   1.407       .  A
C2608      H2615   1.083       .  S
C2609      C2610   1.406       .  A
C2610      H2616   1.084       .  S
C2617      C2618   1.400       .  A
C2617      C2622   1.402       .  A
C2618      C2619   1.389       .  A
C2618      H2627   1.084       .  S
C2619      C2620   1.399       .  A
C2619      H2628   1.084       .  S
C2620      C2626   1.395       .  A
C2620      C2621   1.416       .  A
C2621      C2623   1.404       .  A
C2621      C2622   1.406       .  A
C2622      H2629   1.084       .  S
C2623      C2624   1.401       .  A
C2623      H2630   1.083       .  S
C2624      C2625   1.406       .  A
C2624      H2631   1.083       .  S
C2625      C2626   1.403       .  A
C2626      H2632   1.085       .  S
C2633      C2634   1.404       .  A
C2633      C2638   1.416       .  A
C2634      C2635   1.402       .  A
C2634      H2643   1.083       .  S
C2635      C2636   1.407   1_655  A
C2635      H2644   1.083       .  S
C2636      C2642   1.405       .  A
C2636      C2637   1.409   1_455  A
C2637      C2639   1.406   1_655  A
C2637      C2638   1.405       .  A
C2638      H2645   1.084       .  S
C2639      C2640   1.401       .  A
C2639      H2646   1.084       .  S
C2640      C2641   1.405       .  A
C2640      H2647   1.083       .  S
C2641      C2642   1.415       .  A
C2642      H2648   1.084       .  S
C2649      C2650   1.408       .  A
C2649      C2654   1.408       .  A
C2650      C2651   1.398       .  A
C2650      H2659   1.083       .  S
C2651      C2652   1.402       .  A
C2651      H2660   1.084       .  S
C2652      C2658   1.406       .  A
C2652      C2653   1.413       .  A
C2653      C2655   1.401       .  A
C2653      C2654   1.405       .  A
C2654      H2661   1.084       .  S
C2655      C2656   1.397       .  A
C2655      H2662   1.084       .  S
C2656      C2657   1.408       .  A
C2656      H2663   1.083       .  S
C2657      C2658   1.408       .  A
C2658      H2664   1.084       .  S
