geometry optimzed in LAMMPS
_audit_creation_date              2020-12-01 
_audit_creation_method            'lammps2cif' 
_symmetry_space_group_name_H-M    'P1' 
_symmetry_Int_Tables_number       1 
_symmetry_cell_setting            triclinic 
loop_ 
_symmetry_equiv_pos_as_xyz 
  x,y,z 
_cell_length_a                    32.04403436 
_cell_length_b                    32.125406186259234 
_cell_length_c                    61.85537388298647 
_cell_angle_alpha                 90.25552736748813 
_cell_angle_beta                  89.808626098366 
_cell_angle_gamma                 119.87759116880933 
loop_ 
_atom_site_label 
_atom_site_type_symbol 
_atom_site_fract_x 
_atom_site_fract_y 
_atom_site_fract_z 
_atom_site_charge 
O1          O  0.68035486  0.83949352  0.32959664    -0.80700
O2          O  0.72586950  0.81867717  0.42572750    -0.65400
O3          O  0.68291632  0.79186036  0.36691398    -1.12000
C4          C  0.55801282  0.81720890  0.39484505     1.06200
O5          O  0.65228455  0.76475974  0.43580554    -0.78600
O6          O  0.57232206  0.72704203  0.41203092    -0.66200
Ni7        Ni  0.72476542  0.82398345  0.34336432     1.34900
C8          C  0.56617135  0.70879755  0.39330378     0.84900
O9          O  0.76096515  0.79799326  0.39057158    -0.79100
O10         O  0.77297878  0.81102839  0.35477671    -0.89400
C11         C  0.69726616  0.78841200  0.43939860     0.84500
O12         O  0.75611289  0.88674133  0.35553827    -0.67600
O13         O  0.57131940  0.81150371  0.41354482    -0.86900
C14         C  0.76494037  0.90311180  0.37467763     0.85300
C15         C  0.78436659  0.80212219  0.37324768     1.06900
H16         H  0.66618996  0.85196647  0.40127054     0.38700
O17         O  0.65406996  0.81789822  0.39971422    -1.09500
O18         O  0.58791384  0.73294336  0.37659563    -0.66200
Ni19       Ni  0.62859968  0.80086319  0.37116998     1.26300
O20         O  0.74927168  0.87649883  0.39137718    -0.66400
O21         O  0.57541230  0.81173570  0.37705566    -0.78700
C22         C  0.63567876  0.81196803  0.32624878     0.84700
O23         O  0.60795904  0.78633892  0.34140189    -0.65900
Ni24       Ni  0.61320256  0.78909023  0.42382027     1.27400
Ni25       Ni  0.70752948  0.80789898  0.39578600     1.26100
H26         H  0.67145913  0.75804395  0.36482969     0.39300
O27         O  0.83957957  0.67216615  0.67831288    -0.80700
O28         O  0.82467984  0.72475951  0.57973018    -0.65400
O29         O  0.80176208  0.67878133  0.63817364    -1.12000
C30         C  0.83385205  0.56064722  0.60702936     1.06200
O31         O  0.77428007  0.65093697  0.56864122    -0.78600
O32         O  0.74229043  0.56943649  0.59095527    -0.66200
Ni33       Ni  0.83734802  0.72123218  0.66129701     1.34900
C34         C  0.72367802  0.56188530  0.60963752     0.84900
O35         O  0.80223623  0.75486865  0.61576251    -0.79100
O36         O  0.83701212  0.77548224  0.64830464    -0.89400
C37         C  0.79416403  0.69608826  0.56610764     0.84500
O38         O  0.89806578  0.73836085  0.64864331    -0.67600
O39         O  0.82983507  0.57614676  0.58860104    -0.86900
C40         C  0.91263590  0.75488242  0.62978600     0.85300
C41         C  0.81870213  0.78353951  0.63171949     1.06900
H42         H  0.86443525  0.66849076  0.60271403     0.38700
O43         O  0.82996003  0.65452651  0.60423582    -1.09500
O44         O  0.74650384  0.58498597  0.62635219    -0.66200
Ni45       Ni  0.81375796  0.62686697  0.63223211     1.26300
O46         O  0.88406552  0.74849050  0.61414044    -0.66400
O47         O  0.82691825  0.57591755  0.62508583    -0.78700
C48         C  0.81545894  0.62655700  0.67811818     0.84700
O49         O  0.79809994  0.60226990  0.66097449    -0.65900
Ni50       Ni  0.80325972  0.61509668  0.57947887     1.27400
Ni51       Ni  0.81578225  0.70460991  0.60944025     1.26100
H52         H  0.76792378  0.66630483  0.64103198     0.39300
O53         O  0.17644649  0.85090338  0.32090436    -0.80700
O54         O  0.18049676  0.90959520  0.42003361    -0.65400
O55         O  0.21232449  0.89063721  0.36232182    -1.12000
C56         C  0.16702247  0.73481876  0.39028236     1.06200
O57         O  0.22479407  0.88032279  0.43287003    -0.78600
O58         O  0.26014851  0.83401114  0.41015227    -0.66200
Ni59       Ni  0.18473368  0.90505580  0.33812000     1.34900
C60         C  0.28094284  0.84440345  0.39190162     0.84900
O61         O  0.21393994  0.96692025  0.38602084    -0.79100
O62         O  0.19169055  0.96266049  0.35147356    -0.89400
C63         C  0.20629160  0.90708291  0.43488569     0.84500
O64         O  0.12016267  0.86833886  0.34828509    -0.67600
O65         O  0.17156515  0.75344095  0.40900289    -0.86900
C66         C  0.10306261  0.86735793  0.36697244     0.85300
C67         C  0.20518227  0.98467816  0.36951896     1.06900
H68         H  0.14086994  0.81662424  0.39526355     0.38700
O69         O  0.17561307  0.83507242  0.39470987    -1.09500
O70         O  0.25993800  0.84415475  0.37445603    -0.66200
Ni71       Ni  0.19428019  0.82450737  0.36689075     1.26300
O72         O  0.12892382  0.88269913  0.38392233    -0.66400
O73         O  0.17516872  0.75828980  0.37263836    -0.78700
C74         C  0.19550619  0.82433851  0.32114633     0.84700
O75         O  0.21162890  0.81595353  0.33827621    -0.65900
Ni76       Ni  0.19729293  0.81764150  0.41983257     1.27400
Ni77       Ni  0.19481351  0.90105582  0.39077080     1.26100
H78         H  0.24688837  0.90980350  0.36092021     0.39300
O79         O  0.32418504  0.15235197  0.67345975    -0.80700
O80         O  0.27992216  0.09611913  0.57580357    -0.65400
O81         O  0.32318025  0.10865850  0.63431933    -1.12000
C82         C  0.44306982  0.26306562  0.60943332     1.06200
O83         O  0.35404660  0.12098749  0.56439748    -0.78600
O84         O  0.43397977  0.16278517  0.58898741    -0.66200
Ni85       Ni  0.27960398  0.09608871  0.65775199     1.34900
C86         C  0.44204288  0.15181172  0.60755865     0.84900
O87         O  0.24821614  0.03649366  0.60944009    -0.79100
O88         O  0.23116052  0.03753899  0.64463192    -0.89400
C89         C  0.30874191  0.09702181  0.56150967     0.84500
O90         O  0.25125911  0.13165411  0.64674118    -0.67600
O91         O  0.43057764  0.24562234  0.59039940    -0.86900
C92         C  0.24039710  0.13705764  0.62766865     0.85300
C93         C  0.22273771  0.01704557  0.62619643     1.06900
H94         H  0.33525720  0.18701461  0.60189099     0.38700
O95         O  0.34933697  0.16654162  0.60269889    -1.09500
O96         O  0.41918450  0.15138562  0.62442617    -0.66200
Ni97       Ni  0.37496712  0.17362859  0.63116900     1.26300
O98         O  0.25394419  0.12384781  0.61094307    -0.66400
O99         O  0.42556615  0.23892293  0.62676727    -0.78700
C100        C  0.36837854  0.16649135  0.67630922     0.84700
O101        O  0.39674942  0.17700945  0.66035206    -0.65900
Ni102      Ni  0.39089478  0.18271054  0.57841849     1.27400
Ni103      Ni  0.29884912  0.10149312  0.60546691     1.26100
H104        H  0.33633192  0.08751089  0.63593849     0.39300
O105        O  0.15075654  0.31960935  0.32496838    -0.80700
O106        O  0.09846034  0.27398840  0.42241664    -0.65400
O107        O  0.10917189  0.31950820  0.36447426    -1.12000
C108        C  0.26693337  0.43408519  0.38873270     1.06200
O109        O  0.12551184  0.34781135  0.43460009    -0.78600
O110        O  0.16876495  0.42849763  0.41065893    -0.66200
Ni111      Ni  0.09332142  0.27673400  0.34044097     1.34900
C112        C  0.15696141  0.43786764  0.39255399     0.84900
O113        O  0.03716614  0.24422845  0.38924997    -0.79100
O114        O  0.03372111  0.23007216  0.35349753    -0.89400
C115        C  0.10084804  0.30256454  0.43718694     0.84500
O116        O  0.12538718  0.24402143  0.35038968    -0.67600
O117        O  0.24983366  0.42166233  0.40780276    -0.86900
C118        C  0.13364739  0.23355343  0.36904895     0.85300
C119        C  0.01530795  0.22047869  0.37239295     1.06900
H120        H  0.18850927  0.32842913  0.39567858     0.38700
O121        O  0.16857596  0.34320107  0.39546964    -1.09500
O122        O  0.15497831  0.41552426  0.37519868    -0.66200
Ni123      Ni  0.17514661  0.36985874  0.36731741     1.26300
O124        O  0.12438498  0.24867923  0.38641855    -0.66400
O125        O  0.24174793  0.41848427  0.37146173    -0.78700
C126        C  0.16589822  0.36390140  0.32222892     0.84700
O127        O  0.17790134  0.39226118  0.33828393    -0.65900
Ni128      Ni  0.18702964  0.38354425  0.42017564     1.27400
Ni129      Ni  0.10290156  0.29390426  0.39297429     1.26100
H130        H  0.08878838  0.33370544  0.36360484     0.39300
O131        O  0.85929074  0.16725859  0.67458949    -0.80700
O132        O  0.90927375  0.17308114  0.57713682    -0.65400
O133        O  0.89796370  0.20895049  0.63493628    -1.12000
C134        C  0.73878090  0.16290919  0.61164596     1.06200
O135        O  0.87879578  0.21684709  0.56491924    -0.78600
O136        O  0.83594767  0.25431893  0.58924472    -0.66200
Ni137      Ni  0.91814665  0.18688092  0.65910285     1.34900
C138        C  0.84742231  0.27564059  0.60738551     0.84900
O139        O  0.97099121  0.20764153  0.60984300    -0.79100
O140        O  0.97923368  0.20525010  0.64584038    -0.89400
C141        C  0.90635881  0.19918599  0.56260642     0.84500
O142        O  0.89275145  0.12209700  0.64975651    -0.67600
O143        O  0.75519396  0.16664052  0.59247266    -0.86900
C144        C  0.88249686  0.10191972  0.63133816     0.85300
C145        C  0.99551556  0.21091762  0.62658217     1.06900
H146        H  0.81922791  0.13589632  0.60411835     0.38700
O147        O  0.83799855  0.17055499  0.60431779    -1.09500
O148        O  0.84906229  0.25554846  0.62479136    -0.66200
Ni149      Ni  0.83109588  0.19059271  0.63257559     1.26300
O150        O  0.88616182  0.12405719  0.61381863    -0.66400
O151        O  0.76419349  0.17156058  0.62875102    -0.78700
C152        C  0.83999634  0.19294029  0.67769600     0.84700
O153        O  0.82741366  0.20920294  0.66184418    -0.65900
Ni154      Ni  0.81777796  0.19098270  0.57976727     1.27400
Ni155      Ni  0.90452851  0.18924585  0.60653620     1.26100
H156        H  0.91687357  0.24358730  0.63534784     0.39300
O157        O  0.13374040  0.31015436  0.17190031    -0.80700
O158        O  0.16407700  0.26288975  0.07680451    -0.65400
O159        O  0.18525340  0.30821728  0.13539346    -1.12000
C160        C  0.15904324  0.43025622  0.10565473     1.06200
O161        O  0.21528174  0.33646847  0.06573233    -0.78600
O162        O  0.25174397  0.41619241  0.09011539    -0.66200
Ni163      Ni  0.15175659  0.26660990  0.15890864     1.34900
C164        C  0.26782038  0.42397605  0.10929017     0.84900
O165        O  0.18476761  0.23163345  0.11297766    -0.79100
O166        O  0.16731911  0.21934750  0.14846795    -0.89400
C167        C  0.19371049  0.29123261  0.06287865     0.84500
O168        O  0.09000031  0.23439072  0.14576267    -0.67600
O169        O  0.16713737  0.41729944  0.08727741    -0.86900
C170        C  0.07575804  0.22502308  0.12634290     0.85300
C171        C  0.17964169  0.20883802  0.13050662     1.06900
H172        H  0.12583390  0.32106570  0.09935276     0.38700
O173        O  0.16006071  0.33437418  0.10152135    -1.09500
O174        O  0.24190181  0.40303788  0.12568676    -0.66200
Ni175      Ni  0.17393369  0.36044130  0.13008714     1.26300
O176        O  0.10409091  0.23981578  0.11016270    -0.66400
O177        O  0.16135295  0.41191456  0.12361098    -0.78700
C178        C  0.16050136  0.35504887  0.17469928     0.84700
O179        O  0.18617055  0.38199010  0.15948385    -0.65900
Ni180      Ni  0.19017996  0.37532273  0.07757372     1.27400
Ni181      Ni  0.17249795  0.28287470  0.10658040     1.26100
H182        H  0.21915658  0.32092536  0.13811115     0.39300
O183        O  0.31869840  0.15437592  0.82632639    -0.80700
O184        O  0.27185711  0.17203641  0.92309701    -0.65400
O185        O  0.31906292  0.20117129  0.86495722    -1.12000
C186        C  0.43529040  0.16394136  0.89226136     1.06200
O187        O  0.34527193  0.22018494  0.93540904    -0.78600
O188        O  0.42631457  0.25722580  0.91131157    -0.66200
Ni189      Ni  0.27693783  0.17260491  0.84091739     1.34900
C190        C  0.43619706  0.27559176  0.89257302     0.84900
O191        O  0.24313724  0.19950034  0.88858416    -0.79100
O192        O  0.23048234  0.18789498  0.85278668    -0.89400
C193        C  0.29976206  0.20006462  0.93755847     0.84500
O194        O  0.24254721  0.10928285  0.85207057    -0.67600
O195        O  0.42290093  0.17081904  0.91101941    -0.86900
C196        C  0.23225005  0.09211760  0.87100416     0.85300
C197        C  0.21995518  0.19681883  0.87150376     1.06900
H198        H  0.32809035  0.13495726  0.89866176     0.38700
O199        O  0.34258757  0.16941527  0.89750650    -1.09500
O200        O  0.41493125  0.25254622  0.87550840    -0.66200
Ni201      Ni  0.36929710  0.18612073  0.86911764     1.26300
O202        O  0.24808100  0.11756071  0.88802334    -0.66400
O203        O  0.41817562  0.16947071  0.87457369    -0.78700
C204        C  0.36413233  0.17741015  0.82412745     0.84700
O205        O  0.39164745  0.20078343  0.83972147    -0.65900
Ni206      Ni  0.38277649  0.19474877  0.92211931     1.27400
Ni207      Ni  0.29287404  0.18465536  0.89358486     1.26100
H208        H  0.33331383  0.23552896  0.86341079     0.39300
O209        O  0.14468923  0.82082854  0.17690652    -0.80700
O210        O  0.09175554  0.82158108  0.07746878    -0.65400
O211        O  0.10812161  0.78923427  0.13509930    -1.12000
C212        C  0.26521356  0.83651523  0.10722254     1.06200
O213        O  0.11940558  0.77488964  0.06583014    -0.78600
O214        O  0.17104605  0.74394994  0.08750730    -0.66200
Ni215      Ni  0.09323993  0.81669821  0.15924950     1.34900
C216        C  0.15798712  0.72213649  0.10542442     0.84900
O217        O  0.03311021  0.78814800  0.11126025    -0.79100
O218        O  0.03755595  0.81275768  0.14548174    -0.89400
C219        C  0.09374341  0.79437418  0.06308313     0.84500
O220        O  0.13304756  0.88109482  0.14961320    -0.67600
O221        O  0.24769237  0.83444365  0.08847279    -0.86900
C222        C  0.13416077  0.89872315  0.13110874     0.85300
C223        C  0.01547114  0.79801369  0.12756300     1.06900
H224        H  0.18373645  0.86121335  0.10287507     0.38700
O225        O  0.16510759  0.82655670  0.10314010    -1.09500
O226        O  0.15395729  0.74158751  0.12260179    -0.66200
Ni227      Ni  0.17437764  0.80684160  0.13066017     1.26300
O228        O  0.11763466  0.87318835  0.11405349    -0.66400
O229        O  0.24056095  0.82522745  0.12474159    -0.78700
C230        C  0.16843974  0.79878701  0.17643552     0.84700
O231        O  0.18117126  0.78749284  0.15896073    -0.65900
Ni232      Ni  0.18306679  0.80541617  0.07796054     1.27400
Ni233      Ni  0.09908445  0.80737699  0.10677455     1.26100
H234        H  0.08855468  0.75475784  0.13631952     0.39300
O235        O  0.85060258  0.67147212  0.82440464    -0.80700
O236        O  0.90380701  0.72017982  0.92351468    -0.65400
O237        O  0.89008425  0.67460936  0.86537982    -1.12000
C238        C  0.73305510  0.56137765  0.89159595     1.06200
O239        O  0.87674168  0.64595445  0.93472009    -0.78600
O240        O  0.82732877  0.56461600  0.91162419    -0.66200
Ni241      Ni  0.90397959  0.71740456  0.84175442     1.34900
C242        C  0.84146942  0.55662119  0.89373217     0.84900
O243        O  0.96374929  0.74789602  0.89008973    -0.79100
O244        O  0.96064662  0.76770094  0.85568151    -0.89400
C245        C  0.90215138  0.69100529  0.93764096     0.84500
O246        O  0.86539225  0.74287639  0.85223167    -0.67600
O247        O  0.74979539  0.57705165  0.91045478    -0.86900
C248        C  0.86329176  0.75796895  0.87097634     0.85300
C249        C  0.98210685  0.77499242  0.87380219     1.06900
H250        H  0.81283723  0.66805136  0.89733016     0.38700
O251        O  0.83207583  0.65256549  0.89703071    -1.09500
O252        O  0.84647509  0.58082084  0.87679035    -0.66200
Ni253      Ni  0.82442622  0.62469408  0.86920629     1.26300
O254        O  0.87857736  0.74734412  0.88787283    -0.66400
O255        O  0.75837369  0.57524288  0.87428401    -0.78700
C256        C  0.82931406  0.62584679  0.82381992     0.84700
O257        O  0.81959789  0.60050738  0.84068412    -0.65900
Ni258      Ni  0.81373079  0.61276144  0.92174286     1.27400
Ni259      Ni  0.89789021  0.70025058  0.89404313     1.26100
H260        H  0.91055788  0.66059158  0.86386985     0.39300
O261        O  0.67324131  0.83620083  0.17315371    -0.80700
O262        O  0.71150060  0.88609261  0.07524304    -0.65400
O263        O  0.66872984  0.87534068  0.13401125    -1.12000
C264        C  0.55285798  0.71702099  0.11139350     1.06200
O265        O  0.63668956  0.85533051  0.06360199    -0.78600
O266        O  0.55956137  0.81689649  0.08956725    -0.66200
Ni267      Ni  0.71272989  0.89437697  0.15755673     1.34900
C268        C  0.55141972  0.82857464  0.10804358     0.84900
O269        O  0.74120683  0.94783110  0.10833607    -0.79100
O270        O  0.75561864  0.95482476  0.14412631    -0.89400
C271        C  0.68177429  0.88123948  0.06056483     0.84500
O272        O  0.74875433  0.86610819  0.14698971    -0.67600
O273        O  0.56346347  0.73381371  0.09224360    -0.86900
C274        C  0.75765610  0.85612144  0.12827693     0.85300
C275        C  0.76393560  0.97182586  0.12499753     1.06900
H276        H  0.66005170  0.79618544  0.10240383     0.38700
O277        O  0.64446850  0.81530095  0.10313443    -1.09500
O278        O  0.57286264  0.82782034  0.12515476    -0.66200
Ni279      Ni  0.61957435  0.80882516  0.13195979     1.26300
O280        O  0.73985239  0.86223263  0.11105169    -0.66400
O281        O  0.57118024  0.74212083  0.12847833    -0.78700
C282        C  0.62894159  0.81979015  0.17707784     0.84700
O283        O  0.59895239  0.80613573  0.16160808    -0.65900
Ni284      Ni  0.60176016  0.79554620  0.07916079     1.27400
Ni285      Ni  0.69279521  0.88156861  0.10509495     1.26100
H286        H  0.65347520  0.89469431  0.13503403     0.39300
O287        O  0.84305495  0.15515206  0.82956463    -0.80700
O288        O  0.82052666  0.08691342  0.92432390    -0.65400
O289        O  0.79259445  0.10501731  0.86623070    -1.12000
C290        C  0.82203565  0.25543123  0.89445500     1.06200
O291        O  0.76848581  0.10826824  0.93600347    -0.78600
O292        O  0.73065938  0.15040792  0.91180951    -0.66200
Ni293      Ni  0.82161187  0.09308601  0.84203020     1.34900
C294        C  0.71321065  0.14148916  0.89289926     0.84900
O295        O  0.79857371  0.03209809  0.88889436    -0.79100
O296        O  0.80342178  0.03029438  0.85259180    -0.89400
C297        C  0.78969640  0.08390576  0.93811770     0.84500
O298        O  0.88425625  0.11833873  0.85356270    -0.67600
O299        O  0.81479658  0.23558889  0.91304517    -0.86900
C300        C  0.90215568  0.12892646  0.87234887     0.85300
C301        C  0.79837685  0.01139480  0.87121467     1.06900
H302        H  0.85503715  0.18032635  0.90082529     0.38700
O303        O  0.82075392  0.15911143  0.89918780    -1.09500
O304        O  0.73758879  0.14526978  0.87604428    -0.66200
Ni305      Ni  0.80495234  0.16916735  0.87069729     1.26300
O306        O  0.87725364  0.12181351  0.88943152    -0.66400
O307        O  0.81850885  0.23366832  0.87660631    -0.78700
C308        C  0.81750845  0.17442550  0.82623356     0.84700
O309        O  0.79149393  0.17676994  0.84115005    -0.65900
Ni310      Ni  0.79271302  0.17151296  0.92354206     1.27400
Ni311      Ni  0.80913868  0.09543516  0.89469428     1.26100
H312        H  0.75833312  0.08399291  0.86461176     0.39300
C313        C  0.74406228  0.95286870  0.01415114     0.20600
C314        C  0.78337042  0.98202287  0.00062033    -0.39300
C315        C  0.77354625  0.00422416  0.98330493     0.19500
C316        C  0.72814623  0.99817814  0.98001069     0.22200
C317        C  0.68878053  0.96828392  0.99315773    -0.39800
C318        C  0.69848843  0.94581733  0.01023116     0.21000
N319        N  0.74430841  0.93025363  0.03246262    -0.33100
C320        C  0.69842354  0.90840568  0.04007153    -0.10700
C321        C  0.66885246  0.91694849  0.02646070    -0.29500
N322        N  0.72858382  0.02552497  0.96355884    -0.46100
C323        C  0.77434982  0.04881386  0.95594760    -0.05300
C324        C  0.80352218  0.03614243  0.96771636    -0.22700
H325        H  0.81916179  0.98792620  0.00365455     0.19100
H326        H  0.65337022  0.96382838  0.99061462     0.17900
H327        H  0.63106573  0.90525381  0.02866900     0.14200
H328        H  0.84171995  0.04980633  0.96568053     0.14000
H329        H  0.77391793  0.93037236  0.03953542     0.32200
H330        H  0.69946168  0.02843274  0.95789310     0.35000
C331        C  0.82197072  0.84082865  0.86229847     0.20600
C332        C  0.81224888  0.87102508  0.84973778    -0.39300
C333        C  0.80364597  0.90354187  0.86118686     0.19500
C334        C  0.80484789  0.90625283  0.88353128     0.22200
C335        C  0.81497636  0.87603320  0.89620503    -0.39800
C336        C  0.82353362  0.84313501  0.88466092     0.21000
N337        N  0.83396183  0.80894727  0.85496955    -0.33100
C338        C  0.84384956  0.79078080  0.87265233    -0.10700
C339        C  0.83753158  0.81099823  0.89159555    -0.29500
N340        N  0.79944147  0.94324238  0.89025526    -0.46100
C341        C  0.79518282  0.96412393  0.87197645    -0.05300
C342        C  0.79725728  0.93999225  0.85360591    -0.22700
H343        H  0.81284939  0.87026358  0.83224458     0.19100
H344        H  0.81751440  0.87895702  0.91364701     0.17900
H345        H  0.84416652  0.80454338  0.90805187     0.14200
H346        H  0.79770580  0.94997647  0.83687579     0.14000
H347        H  0.83722750  0.80153403  0.83878654     0.32200
H348        H  0.80171532  0.95538884  0.90613645     0.35000
C349        C  0.84656409  0.37480444  0.88251693     0.20600
C350        C  0.85088010  0.41301667  0.86977390    -0.39300
C351        C  0.85312493  0.45208690  0.88122472     0.19500
C352        C  0.85111734  0.45265280  0.90358125     0.22200
C353        C  0.84696883  0.41477295  0.91621804    -0.39800
C354        C  0.84482396  0.37605786  0.90485414     0.21000
N355        N  0.84030006  0.33210885  0.87573894    -0.33100
C356        C  0.83431960  0.30623324  0.89396937    -0.10700
C357        C  0.83730769  0.33272708  0.91237797    -0.29500
N358        N  0.84966113  0.49137273  0.91065880    -0.46100
C359        C  0.85047245  0.51594807  0.89279679    -0.05300
C360        C  0.85317594  0.49287946  0.87403846    -0.22700
H361        H  0.85081139  0.41170818  0.85228563     0.19100
H362        H  0.84388533  0.41470988  0.93365188     0.17900
H363        H  0.83245411  0.32103621  0.92904131     0.14200
H364        H  0.85190406  0.50277468  0.85744938     0.14000
H365        H  0.83842296  0.32068172  0.85975454     0.32200
H366        H  0.84576132  0.49924910  0.92669244     0.35000
C367        C  0.97288261  0.75240259  0.98391321     0.20600
C368        C  0.99403454  0.78836954  0.99985968    -0.39300
C369        C  0.01978739  0.78011414  0.01604053     0.19500
C370        C  0.02469208  0.73965166  0.01589320     0.22200
C371        C  0.00293757  0.70351509  0.00029630    -0.39800
C372        C  0.97655028  0.71125881  0.98451268     0.21000
N373        N  0.94649192  0.75123524  0.96679070    -0.33100
C374        C  0.93267161  0.70855727  0.95689466    -0.10700
C375        C  0.95057080  0.68266980  0.96750560    -0.29500
N376        N  0.05168238  0.74038447  0.03248008    -0.46100
C377        C  0.06357542  0.78107513  0.04366370    -0.05300
C378        C  0.04420713  0.80694613  0.03402375    -0.22700
H379        H  0.99056209  0.82019542  0.99971908     0.19100
H380        H  0.00618002  0.67154813  0.00049986     0.17900
H381        H  0.94550644  0.64773474  0.96322231     0.14200
H382        H  0.04804184  0.84086806  0.03925694     0.14000
H383        H  0.93765464  0.77722958  0.96235531     0.32200
H384        H  0.06105153  0.71436148  0.03612161     0.35000
C385        C  0.84330610  0.81921534  0.11506896     0.20600
C386        C  0.87728499  0.81442158  0.10241753    -0.39300
C387        C  0.90839669  0.80330999  0.11382768     0.19500
C388        C  0.90583056  0.79784088  0.13607942     0.22200
C389        C  0.87193160  0.80232502  0.14860522    -0.39800
C390        C  0.84095577  0.81314061  0.13726960     0.21000
N391        N  0.81226798  0.83347447  0.10860555    -0.33100
C392        C  0.79071904  0.83684684  0.12695634    -0.10700
C393        C  0.80736398  0.82389556  0.14502984    -0.29500
N394        N  0.94203621  0.79239455  0.14345099    -0.46100
C395        C  0.96812818  0.79434009  0.12586385    -0.05300
C396        C  0.94802197  0.80048172  0.10697893    -0.22700
H397        H  0.88049762  0.82069691  0.08515785     0.19100
H398        H  0.87107666  0.79960421  0.16605689     0.17900
H399        H  0.79789286  0.82462600  0.16178797     0.14200
H400        H  0.96258716  0.80599383  0.09075997     0.14000
H401        H  0.80777258  0.84257114  0.09293446     0.32200
H402        H  0.94997267  0.79006669  0.15962031     0.35000
C403        C  0.38099954  0.85348904  0.12007719     0.20600
C404        C  0.41416504  0.84767566  0.13262885    -0.39300
C405        C  0.45329173  0.84989680  0.12134695     0.19500
C406        C  0.45871171  0.85715310  0.09922806     0.22200
C407        C  0.42582740  0.86332873  0.08671509    -0.39800
C408        C  0.38684594  0.86120352  0.09799396     0.21000
N409        N  0.33813938  0.84724478  0.12649156    -0.33100
C410        C  0.31637338  0.85045201  0.10833217    -0.10700
C411        C  0.34600288  0.85988253  0.09028626    -0.29500
N412        N  0.49577918  0.85270260  0.09196082    -0.46100
C413        C  0.51420464  0.84250141  0.10951723    -0.05300
C414        C  0.48903206  0.84100000  0.12823252    -0.22700
H415        H  0.40864752  0.83966254  0.14972303     0.19100
H416        H  0.42905153  0.86704485  0.06931082     0.17900
H417        H  0.33717107  0.86143394  0.07353699     0.14200
H418        H  0.49403282  0.83133313  0.14436848     0.14000
H419        H  0.32321089  0.83785703  0.14196137     0.32200
H420        H  0.50646177  0.85425467  0.07586902     0.35000
C421        C  0.53605015  0.39357499  0.90054173     0.20600
C422        C  0.57106288  0.43182855  0.91274896    -0.39300
C423        C  0.61091172  0.46629434  0.90117887     0.19500
C424        C  0.61603547  0.46294941  0.87911652     0.22200
C425        C  0.58074177  0.42464418  0.86683968    -0.39800
C426        C  0.54043702  0.39022091  0.87841910     0.21000
N427        N  0.49696585  0.35438559  0.90810122    -0.33100
C428        C  0.47594672  0.32561986  0.89072686    -0.10700
C429        C  0.50180330  0.34697973  0.87185367    -0.29500
N430        N  0.65945666  0.49812837  0.87240611    -0.46100
C431        C  0.68193883  0.52377027  0.89041214    -0.05300
C432        C  0.65247388  0.50516369  0.90855922    -0.22700
H433        H  0.56833093  0.43371289  0.93013529     0.19100
H434        H  0.58510598  0.42100404  0.84970144     0.17900
H435        H  0.49513762  0.33148061  0.85579517     0.14200
H436        H  0.66149888  0.51668767  0.92519961     0.14000
H437        H  0.48654810  0.34667013  0.92427847     0.32200
H438        H  0.67381203  0.50280292  0.85683619     0.35000
C439        C  0.14996600  0.97004128  0.88539758     0.20600
C440        C  0.11751140  0.93143494  0.89839419    -0.39300
C441        C  0.08829926  0.88791581  0.88740344     0.19500
C442        C  0.09155329  0.88362476  0.86524700     0.22200
C443        C  0.12398794  0.92183179  0.85241416    -0.39800
C444        C  0.15274136  0.96495014  0.86329473     0.21000
N445        N  0.17907213  0.01609198  0.89137675    -0.33100
C446        C  0.19995874  0.03997969  0.87281833    -0.10700
C447        C  0.18445196  0.00915118  0.85507782    -0.29500
N448        N  0.05630969  0.84125305  0.85810926    -0.46100
C449        C  0.02977862  0.81810153  0.87567450    -0.05300
C450        C  0.04906836  0.84558106  0.89441293    -0.22700
H451        H  0.11369072  0.93556049  0.91554139     0.19100
H452        H  0.12503451  0.91884355  0.83500572     0.17900
H453        H  0.19383181  0.01823504  0.83825025     0.14200
H454        H  0.03370374  0.83772608  0.91050304     0.14000
H455        H  0.18313428  0.03061440  0.90688492     0.32200
H456        H  0.04868541  0.83022421  0.84198812     0.35000
C457        C  0.52881355  0.13779268  0.87970924     0.20600
C458        C  0.56467846  0.13636595  0.86710106    -0.39300
C459        C  0.59826744  0.12901403  0.87855421     0.19500
C460        C  0.59587736  0.12333497  0.90079278     0.22200
C461        C  0.56035030  0.12495334  0.91331575    -0.39800
C462        C  0.52716011  0.13247809  0.90194514     0.21000
N463        N  0.49491671  0.14796603  0.87310768    -0.33100
C464        C  0.47214464  0.14951429  0.89137762    -0.10700
C465        C  0.49119011  0.13984343  0.90961065    -0.29500
N466        N  0.63460804  0.12255397  0.90823614    -0.46100
C467        C  0.66264304  0.12871730  0.89077840    -0.05300
C468        C  0.64082370  0.13197467  0.87183571    -0.22700
H469        H  0.56752711  0.14271429  0.84984856     0.19100
H470        H  0.55996884  0.12280145  0.93078331     0.17900
H471        H  0.48139864  0.14021690  0.92634932     0.14200
H472        H  0.65619116  0.14029276  0.85575118     0.14000
H473        H  0.48905265  0.15541649  0.85734623     0.32200
H474        H  0.64328339  0.12196510  0.92445993     0.35000
C475        C  0.11136486  0.19958898  0.86434547     0.20600
C476        C  0.07308944  0.19652651  0.85226414    -0.39300
C477        C  0.02991765  0.18078251  0.86356504     0.19500
C478        C  0.02503212  0.16929152  0.88532826     0.22200
C479        C  0.06349426  0.17259305  0.89747283    -0.39800
C480        C  0.10679232  0.18821498  0.88612485     0.21000
N481        N  0.15398963  0.20766715  0.85668170    -0.33100
C482        C  0.17674700  0.20128918  0.87366313    -0.10700
C483        C  0.14873399  0.18974429  0.89237439    -0.29500
N484        N  0.97901602  0.15118312  0.89173160    -0.46100
C485        C  0.95463650  0.15061388  0.87376955    -0.05300
C486        C  0.98525357  0.16913686  0.85599120    -0.22700
H487        H  0.07596759  0.20342991  0.83505435     0.19100
H488        H  0.05937119  0.16157269  0.91421900     0.17900
H489        H  0.15613714  0.17933947  0.90788712     0.14200
H490        H  0.97562261  0.17151991  0.83946515     0.14000
H491        H  0.16547744  0.21388836  0.84059499     0.32200
H492        H  0.96469196  0.13766308  0.90698032     0.35000
C493        C  0.94824997  0.15295406  0.13080332     0.20600
C494        C  0.90497243  0.12814950  0.14229415    -0.39300
C495        C  0.86684760  0.09034061  0.13120713     0.19500
C496        C  0.87113847  0.07846478  0.11008442     0.22200
C497        C  0.91450984  0.10372384  0.09848209    -0.39800
C498        C  0.95298369  0.14133707  0.10970052     0.21000
N499        N  0.99101457  0.18573385  0.13883037    -0.33100
C500        C  0.02355146  0.19509134  0.12287425    -0.10700
C501        C  0.00115432  0.16859091  0.10427749    -0.29500
N502        N  0.83217283  0.03671420  0.10440076    -0.46100
C503        C  0.80367500  0.02138850  0.12221568    -0.05300
C504        C  0.82373674  0.05441688  0.13909058    -0.22700
H505        H  0.90223688  0.13550948  0.15917744     0.19100
H506        H  0.91890060  0.09279293  0.08245215     0.17900
H507        H  0.01824432  0.16681176  0.08945224     0.14200
H508        H  0.81096528  0.05019137  0.15560254     0.14000
H509        H  0.99800654  0.19904147  0.15464172     0.32200
H510        H  0.82769821  0.01739331  0.09013830     0.35000
C511        C  0.38933985  0.51790424  0.10370242     0.20600
C512        C  0.42891749  0.55177812  0.09181587    -0.39300
C513        C  0.46174543  0.59290732  0.10316424     0.19500
C514        C  0.45599015  0.60005189  0.12480293     0.22200
C515        C  0.41634424  0.56583716  0.13679771    -0.39800
C516        C  0.38324093  0.52443899  0.12538577     0.21000
N517        N  0.35034789  0.47916605  0.09578998    -0.33100
C518        C  0.31872152  0.46075321  0.11240591    -0.10700
C519        C  0.33826620  0.48752511  0.13129100    -0.29500
N520        N  0.48970176  0.64451645  0.13110844    -0.46100
C521        C  0.51651173  0.66570134  0.11321833    -0.05300
C522        C  0.50033457  0.63434695  0.09560722    -0.22700
H523        H  0.43248572  0.54763976  0.07464405     0.19100
H524        H  0.41038632  0.57210954  0.15343528     0.17900
H525        H  0.32026152  0.48329486  0.14663520     0.14200
H526        H  0.51313480  0.64199145  0.07908400     0.14000
H527        H  0.34429688  0.46794569  0.07965753     0.32200
H528        H  0.49231154  0.66045466  0.14617323     0.35000
C529        C  0.14085876  0.52975457  0.11690382     0.20600
C530        C  0.14063445  0.56625265  0.12949304    -0.39300
C531        C  0.14125405  0.60416279  0.11792066     0.19500
C532        C  0.14226865  0.60556111  0.09555026     0.22200
C533        C  0.14207646  0.56902816  0.08301174    -0.39800
C534        C  0.14129092  0.53120212  0.09454045     0.21000
N535        N  0.14464585  0.49208175  0.12388133    -0.33100
C536        C  0.14785474  0.46970168  0.10579562    -0.10700
C537        C  0.14527704  0.49283942  0.08722566    -0.29500
N538        N  0.14664231  0.64692346  0.08837941    -0.46100
C539        C  0.14831312  0.67225904  0.10624394    -0.05300
C540        C  0.14467759  0.64661651  0.12503029    -0.22700
H541        H  0.14164649  0.56601808  0.14697789     0.19100
H542        H  0.14422087  0.57082750  0.06554266     0.17900
H543        H  0.14882396  0.48442441  0.07059304     0.14200
H544        H  0.14682164  0.65849630  0.14160054     0.14000
H545        H  0.14742894  0.48363688  0.13990547     0.32200
H546        H  0.14997943  0.65795039  0.07229445     0.35000
C547        C  0.18344764  0.10187056  0.11868707     0.20600
C548        C  0.17504215  0.06183156  0.10614167    -0.39300
C549        C  0.17072987  0.02228582  0.11767371     0.19500
C550        C  0.17498867  0.02292359  0.13995827     0.22200
C551        C  0.18331361  0.06280337  0.15245925    -0.39800
C552        C  0.18710895  0.10201207  0.14098695     0.21000
N553        N  0.18368286  0.14173767  0.11192340    -0.33100
C554        C  0.18659420  0.16686024  0.13009482    -0.10700
C555        C  0.18930615  0.14340728  0.14849570    -0.29500
N556        N  0.16512982  0.97973416  0.14730108    -0.46100
C557        C  0.15375395  0.95095294  0.12966801    -0.05300
C558        C  0.15732933  0.97633507  0.11081502    -0.22700
H559        H  0.16985298  0.06067787  0.08882096     0.19100
H560        H  0.18429198  0.06239216  0.16994518     0.17900
H561        H  0.18951909  0.15365631  0.16520825     0.14200
H562        H  0.14841763  0.96232979  0.09450495     0.14000
H563        H  0.17866906  0.14964973  0.09610770     0.32200
H564        H  0.16340044  0.96972897  0.16347090     0.35000
C565        C  0.24869063  0.27456632  0.01580527     0.20600
C566        C  0.28470051  0.28874260  0.00008516    -0.39300
C567        C  0.27674168  0.25483245  0.98403362     0.19500
C568        C  0.23560529  0.21015751  0.98331950     0.22200
C569        C  0.19946898  0.19562148  0.99933826    -0.39800
C570        C  0.20782341  0.22962939  0.01575258     0.21000
N571        N  0.24826414  0.30096585  0.03252753    -0.33100
C572        C  0.20713547  0.27306052  0.04360773    -0.10700
C573        C  0.18081827  0.22789457  0.03374119    -0.29500
N574        N  0.23733369  0.18472272  0.96621119    -0.46100
C575        C  0.28037747  0.21337761  0.95642129    -0.05300
C576        C  0.30566331  0.25727766  0.96708894    -0.22700
H577        H  0.31688413  0.32371442  0.00041835     0.19100
H578        H  0.16748397  0.16050905  0.99910394     0.17900
H579        H  0.14635976  0.19838671  0.03874574     0.14200
H580        H  0.34085349  0.28695893  0.96305826     0.14000
H581        H  0.27462985  0.33617874  0.03619693     0.32200
H582        H  0.21167106  0.14971771  0.96185629     0.35000
C583        C  0.85356082  0.21959483  0.73380535     0.20600
C584        C  0.87878354  0.23059332  0.75336148    -0.39300
C585        C  0.85065315  0.21805430  0.77211348     0.19500
C586        C  0.80093692  0.19585267  0.77157078     0.22200
C587        C  0.77554103  0.18434444  0.75186935    -0.39800
C588        C  0.80385659  0.19740683  0.73296287     0.21000
N589        N  0.87209080  0.22366423  0.71396918    -0.33100
C590        C  0.83432794  0.20423572  0.70018303    -0.10700
C591        C  0.79092334  0.18756220  0.71136478    -0.29500
N592        N  0.78254335  0.18233554  0.79161916    -0.46100
C593        C  0.82087637  0.19537358  0.80481730    -0.05300
C594        C  0.86384050  0.21811378  0.79320899    -0.22700
H595        H  0.91743750  0.24569498  0.75391779     0.19100
H596        H  0.73661487  0.16477231  0.75130229     0.17900
H597        H  0.75488934  0.16734483  0.70484941     0.14200
H598        H  0.89955694  0.22861424  0.79908314     0.14000
H599        H  0.90819259  0.23622109  0.71011596     0.32200
H600        H  0.74623908  0.16110270  0.79569290     0.35000
C601        C  0.98330053  0.21589920  0.51713749     0.20600
C602        C  0.00833769  0.20483283  0.50141015    -0.39300
C603        C  0.03127449  0.23938024  0.48501458     0.19500
C604        C  0.02998055  0.28182298  0.48473325     0.22200
C605        C  0.00463006  0.29245336  0.50014099    -0.39800
C606        C  0.98118476  0.25783781  0.51612549     0.21000
N607        N  0.95762518  0.18918078  0.53420485    -0.33100
C608        C  0.93851374  0.21426442  0.54362534    -0.10700
C609        C  0.95254568  0.25709408  0.53278176    -0.29500
N610        N  0.05487149  0.30920367  0.46792033    -0.46100
C611        C  0.07175860  0.28407047  0.45699473    -0.05300
C612        C  0.05766115  0.24006591  0.46705857    -0.22700
H613        H  0.00949913  0.17174681  0.50178305     0.19100
H614        H  0.00289685  0.32523358  0.49959962     0.17900
H615        H  0.94292596  0.28416451  0.53660400     0.14200
H616        H  0.06599493  0.21269649  0.46205491     0.14000
H617        H  0.95248909  0.15571114  0.53882423     0.32200
H618        H  0.05945465  0.34278645  0.46389559     0.35000
C619        C  0.14098976  0.37755902  0.26771686     0.20600
C620        C  0.11206742  0.36253906  0.24918247    -0.39300
C621        C  0.13659086  0.37528354  0.22941165     0.19500
C622        C  0.18631865  0.40180743  0.22810954     0.22200
C623        C  0.21531734  0.41718799  0.24674322    -0.39800
C624        C  0.19073854  0.40391667  0.26661598     0.21000
N625        N  0.12645900  0.36336653  0.28805239    -0.33100
C626        C  0.16692875  0.38073177  0.30012045    -0.10700
C627        C  0.20792427  0.40652643  0.28738791    -0.29500
N628        N  0.20097579  0.40249145  0.20762415    -0.46100
C629        C  0.16040452  0.37522033  0.19602080    -0.05300
C630        C  0.11958953  0.35821583  0.20900840    -0.22700
H631        H  0.07343444  0.33930525  0.25009154     0.19100
H632        H  0.25418146  0.43503600  0.24581940     0.17900
H633        H  0.24503892  0.42101814  0.29224918     0.14200
H634        H  0.08290118  0.33247674  0.20458861     0.14000
H635        H  0.09123051  0.34020307  0.29319309     0.32200
H636        H  0.23639996  0.41586901  0.20237427     0.35000
C637        C  0.37889101  0.14568933  0.73168586     0.20600
C638        C  0.36177177  0.11933912  0.75079652    -0.39300
C639        C  0.37814728  0.14563873  0.77000676     0.19500
C640        C  0.40925562  0.19475201  0.77032872     0.22200
C641        C  0.42663368  0.22126128  0.75104749    -0.39800
C642        C  0.41036267  0.19474817  0.73167216     0.21000
N643        N  0.36333696  0.12966699  0.71164281    -0.33100
C644        C  0.38491657  0.16840581  0.69856567    -0.10700
C645        C  0.41503742  0.20982558  0.71036935    -0.29500
N646        N  0.41305931  0.21209814  0.79058798    -0.46100
C647        C  0.38350471  0.17377605  0.80301792    -0.05300
C648        C  0.36182419  0.13180064  0.79072823    -0.22700
H649        H  0.33503997  0.08153485  0.75069851     0.19100
H650        H  0.44873658  0.25998224  0.75110894     0.17900
H651        H  0.43387131  0.24638864  0.70451657     0.14200
H652        H  0.33349245  0.09677843  0.79580908     0.14000
H653        H  0.33690058  0.09494830  0.70727306     0.32200
H654        H  0.43018901  0.24821429  0.79516063     0.35000
C655        C  0.61753147  0.13418193  0.60305153     0.20600
C656        C  0.57821705  0.12604640  0.59024967    -0.39300
C657        C  0.54238508  0.13133199  0.60070193     0.19500
C658        C  0.54527282  0.14370026  0.62233133     0.22200
C659        C  0.58499223  0.15230443  0.63516222    -0.39800
C660        C  0.62101426  0.14692098  0.62465945     0.21000
N661        N  0.65785980  0.13539644  0.59628342    -0.33100
C662        C  0.68776352  0.14940935  0.61355501    -0.10700
C663        C  0.66586670  0.15643812  0.63170368    -0.29500
N664        N  0.50789054  0.14952019  0.62794126    -0.46100
C665        C  0.48155885  0.14134615  0.60965495    -0.05300
C666        C  0.50194695  0.12982028  0.59237566    -0.22700
H667        H  0.57650636  0.11790180  0.57316592     0.19100
H668        H  0.58833846  0.16386510  0.65184228     0.17900
H669        H  0.68185195  0.17003483  0.64739231     0.14200
H670        H  0.49018139  0.12373140  0.57569878     0.14000
H671        H  0.66556081  0.12964619  0.58048886     0.32200
H672        H  0.50229531  0.16126395  0.64287997     0.35000
C673        C  0.16936116  0.19387048  0.63309307     0.20600
C674        C  0.14673523  0.21511851  0.64436039    -0.39300
C675        C  0.11062364  0.21832195  0.63307372     0.19500
C676        C  0.09801572  0.20180738  0.61206381     0.22200
C677        C  0.12097830  0.18079125  0.60070705    -0.39800
C678        C  0.15718700  0.17755658  0.61203904     0.21000
N679        N  0.20141447  0.18263018  0.64103974    -0.33100
C680        C  0.20999412  0.15909785  0.62495698    -0.10700
C681        C  0.18336105  0.15553906  0.60651258    -0.29500
N682        N  0.05794543  0.20243570  0.60617085    -0.46100
C683        C  0.04436732  0.21830266  0.62373317    -0.05300
C684        C  0.07700771  0.22954287  0.64063030    -0.22700
H685        H  0.15472225  0.22581556  0.66113919     0.19100
H686        H  0.10971126  0.16573169  0.58467691     0.17900
H687        H  0.18146495  0.13709366  0.59154448     0.14200
H688        H  0.07352340  0.23928591  0.65703957     0.14000
H689        H  0.21541770  0.18920279  0.65670454     0.32200
H690        H  0.03818420  0.18793173  0.59200728     0.35000
C691        C  0.25944919  0.97530069  0.48257300     0.20600
C692        C  0.29407596  0.99459880  0.49888951    -0.39300
C693        C  0.28681368  0.02177074  0.51453211     0.19500
C694        C  0.24749703  0.02868607  0.51433726     0.22200
C695        C  0.21281781  0.00969447  0.49769801    -0.39800
C696        C  0.22058308  0.98289364  0.48166863     0.21000
N697        N  0.25866760  0.94790737  0.46607744    -0.33100
C698        C  0.21938201  0.93794317  0.45420735    -0.10700
C699        C  0.19460051  0.95941429  0.46327638    -0.29500
N700        N  0.24920847  0.05578865  0.53141817    -0.46100
C701        C  0.29044228  0.06662838  0.54208404    -0.05300
C702        C  0.31467667  0.04607547  0.53199672    -0.22700
H703        H  0.32469148  0.98899079  0.49931313     0.19100
H704        H  0.18230382  0.01544577  0.49723282     0.17900
H705        H  0.16175091  0.95728938  0.45749688     0.14200
H706        H  0.34827483  0.04856600  0.53685672     0.14000
H707        H  0.28363589  0.93666594  0.46304511     0.32200
H708        H  0.22466396  0.06710473  0.53528939     0.35000
C709        C  0.20104397  0.09203405  0.36088036     0.20600
C710        C  0.19324890  0.12360547  0.34832523    -0.39300
C711        C  0.18091538  0.15360236  0.35969253     0.19500
C712        C  0.17642120  0.15247621  0.38197019     0.22200
C713        C  0.18475504  0.12100823  0.39467027    -0.39800
C714        C  0.19738785  0.09083891  0.38320980     0.21000
N715        N  0.20770731  0.05647542  0.35352116    -0.33100
C716        C  0.20827684  0.03195429  0.37114898    -0.10700
C717        C  0.20274308  0.05277053  0.39008655    -0.29500
N718        N  0.16028809  0.18208046  0.38852186    -0.46100
C719        C  0.15447164  0.20174884  0.37016591    -0.05300
C720        C  0.16739022  0.18505681  0.35197752    -0.22700
H721        H  0.19457800  0.12332558  0.33083918     0.19100
H722        H  0.17980147  0.11874656  0.41202975     0.17900
H723        H  0.19878053  0.03929857  0.40641412     0.14200
H724        H  0.16514773  0.19326417  0.33521263     0.14000
H725        H  0.20867097  0.04756149  0.33733284     0.32200
H726        H  0.15202625  0.18715505  0.40431836     0.35000
C727        C  0.14508757  0.61642147  0.40072025     0.20600
C728        C  0.14403472  0.58015100  0.41362170    -0.39300
C729        C  0.14336917  0.54179472  0.40246253     0.19500
C730        C  0.14384406  0.53959219  0.38012055     0.22200
C731        C  0.14543462  0.57628661  0.36717658    -0.39800
C732        C  0.14598978  0.61478275  0.37836880     0.21000
N733        N  0.14933622  0.65804599  0.40754716    -0.33100
C734        C  0.15373355  0.68374796  0.38949912    -0.10700
C735        C  0.15127248  0.65769951  0.37091575    -0.29500
N736        N  0.14591650  0.50059790  0.37355614    -0.46100
C737        C  0.14718673  0.47817258  0.39189422    -0.05300
C738        C  0.14546006  0.50282380  0.41020083    -0.22700
H739        H  0.14508264  0.58233079  0.43109954     0.19100
H740        H  0.14749437  0.57559276  0.34972304     0.17900
H741        H  0.15578506  0.66970535  0.35431332     0.14200
H742        H  0.14793652  0.49466451  0.42694993     0.14000
H743        H  0.15189376  0.66936315  0.42359376     0.32200
H744        H  0.14884318  0.49124410  0.35765692     0.35000
C745        C  0.16628386  0.76227172  0.23052443     0.20600
C746        C  0.14270256  0.74621717  0.25045826    -0.39300
C747        C  0.17090217  0.76710190  0.26890325     0.19500
C748        C  0.21933929  0.80102456  0.26763531     0.22200
C749        C  0.24320686  0.81636549  0.24763843    -0.39800
C750        C  0.21480195  0.79591530  0.22912538     0.21000
N751        N  0.14513373  0.75568758  0.21114916    -0.33100
C752        C  0.18002868  0.78534369  0.19727410    -0.10700
C753        C  0.22425528  0.81051335  0.20777677    -0.29500
N754        N  0.23566194  0.82207981  0.28702816    -0.46100
C755        C  0.19734929  0.80188374  0.30063453    -0.05300
C756        C  0.15650463  0.76712435  0.28993458    -0.22700
H757        H  0.10412696  0.72272430  0.25148515     0.19100
H758        H  0.28003348  0.84543752  0.24653756     0.17900
H759        H  0.25715706  0.83996882  0.20135643     0.14200
H760        H  0.11998199  0.74871208  0.29604370     0.14000
H761        H  0.10821830  0.73605429  0.20800483     0.32200
H762        H  0.26925330  0.85203922  0.29021278     0.35000
C763        C  0.82788726  0.59199164  0.73082575     0.20600
C764        C  0.85523940  0.59592735  0.74911907    -0.39300
C765        C  0.83281860  0.59172622  0.76907731     0.19500
C766        C  0.78655037  0.58448239  0.77083270     0.22200
C767        C  0.75872373  0.57959937  0.75246738    -0.39800
C768        C  0.78114296  0.58347811  0.73240564     0.21000
N769        N  0.84429668  0.60350136  0.71047582    -0.33100
C770        C  0.80781735  0.60197097  0.69888760    -0.10700
C771        C  0.76764049  0.58915704  0.71195504    -0.29500
N772        N  0.77718590  0.59112930  0.79141023    -0.46100
C773        C  0.81779529  0.60255108  0.80263024    -0.05300
C774        C  0.85289798  0.60274430  0.78932825    -0.22700
H775        H  0.89270497  0.60556550  0.74793556     0.19100
H776        H  0.72374962  0.57689566  0.75369800     0.17900
H777        H  0.73538513  0.59007504  0.70766787     0.14200
H778        H  0.89006488  0.61503296  0.79345259     0.14000
H779        H  0.87965344  0.61633096  0.70524875     0.32200
H780        H  0.74712221  0.59253151  0.79702223     0.35000
C781        C  0.60605858  0.46266273  0.60206478     0.20600
C782        C  0.56830275  0.42758708  0.58973205    -0.39300
C783        C  0.53548961  0.38638180  0.60092185     0.19500
C784        C  0.53971395  0.38022308  0.62278414     0.22200
C785        C  0.57759112  0.41557432  0.63520870    -0.39800
C786        C  0.61052617  0.45713426  0.62398001     0.21000
N787        N  0.64436893  0.50254512  0.59462024    -0.33100
C788        C  0.67373223  0.52278356  0.61183105    -0.10700
C789        C  0.65362392  0.49588126  0.63054576    -0.29500
N790        N  0.50587352  0.33594474  0.62906769    -0.46100
C791        C  0.48043406  0.31398668  0.61095657    -0.05300
C792        C  0.49771506  0.34451640  0.59319281    -0.22700
H793        H  0.56581857  0.43122703  0.57246310     0.19100
H794        H  0.58216755  0.41032195  0.65211963     0.17900
H795        H  0.67019066  0.50162533  0.64631608     0.14200
H796        H  0.48572673  0.33631528  0.57658302     0.14000
H797        H  0.65146153  0.51371749  0.57852645     0.32200
H798        H  0.50186782  0.32087887  0.64439715     0.35000
C799        C  0.03892203  0.83345688  0.63480767     0.20600
C800        C  0.08089484  0.86276584  0.64652909    -0.39300
C801        C  0.11764306  0.90101980  0.63509360     0.19500
C802        C  0.11340722  0.90946045  0.61350172     0.22200
C803        C  0.07111911  0.88021158  0.60176252    -0.39800
C804        C  0.03402031  0.84196702  0.61329287     0.21000
N805        N  0.99712695  0.79855710  0.64279682    -0.33100
C806        C  0.96487748  0.78520651  0.62644641    -0.10700
C807        C  0.98673747  0.81091525  0.60764873    -0.29500
N808        N  0.15211707  0.95059488  0.60696639    -0.46100
C809        C  0.18053146  0.96858776  0.62469268    -0.05300
C810        C  0.16025118  0.93852189  0.64244504    -0.22700
H811        H  0.08379801  0.85762072  0.66362642     0.19100
H812        H  0.06655579  0.88802863  0.58521932     0.17900
H813        H  0.96943602  0.80998298  0.59251405     0.14200
H814        H  0.17360060  0.94477412  0.65887746     0.14000
H815        H  0.99013147  0.78725577  0.65887522     0.32200
H816        H  0.15727982  0.96701468  0.59189296     0.35000
C817        C  0.85601924  0.46411950  0.61832404     0.20600
C818        C  0.85928965  0.42962025  0.63100238    -0.39300
C819        C  0.86119796  0.39271278  0.61953257     0.19500
C820        C  0.85978803  0.39046949  0.59717191     0.22200
C821        C  0.85674989  0.42496303  0.58453642    -0.39800
C822        C  0.85502734  0.46179228  0.59596878     0.21000
N823        N  0.85032056  0.50077711  0.62524725    -0.33100
C824        C  0.84569901  0.52181231  0.60713259    -0.10700
C825        C  0.84872774  0.49858769  0.58858327    -0.29500
N826        N  0.85758700  0.34986180  0.59014751    -0.46100
C827        C  0.85729539  0.32563845  0.60808707    -0.05300
C828        C  0.86010295  0.35152320  0.62677961    -0.22700
H829        H  0.85867578  0.43050785  0.64848917     0.19100
H830        H  0.85418635  0.42236083  0.56708527     0.17900
H831        H  0.84454608  0.50618689  0.57194816     0.14200
H832        H  0.85815957  0.34020178  0.64338492     0.14000
H833        H  0.84795365  0.50980878  0.64127061     0.32200
H834        H  0.85385368  0.33814827  0.57411817     0.35000
C835        C  0.82651760  0.89593859  0.61997113     0.20600
C836        C  0.83536953  0.93576429  0.60729981    -0.39300
C837        C  0.84504236  0.97744534  0.61882630     0.19500
C838        C  0.84564493  0.97906672  0.64120462     0.22200
C839        C  0.83666245  0.93941144  0.65380966    -0.39800
C840        C  0.82734449  0.89807003  0.64234260     0.21000
N841        N  0.82046093  0.85342948  0.61310645    -0.33100
C842        C  0.81816496  0.82896627  0.63131373    -0.10700
C843        C  0.82199707  0.85555091  0.64978990    -0.29500
N844        N  0.85830478  0.02324113  0.64835321    -0.46100
C845        C  0.86587932  0.05022946  0.63045477    -0.05300
C846        C  0.85781856  0.02292961  0.61167754    -0.22700
H847        H  0.83624136  0.93486404  0.58981653     0.19100
H848        H  0.83854105  0.94115780  0.67128601     0.17900
H849        H  0.82330623  0.84600933  0.66643736     0.14200
H850        H  0.86211301  0.03506312  0.59510082     0.14000
H851        H  0.82088214  0.84294427  0.59713263     0.32200
H852        H  0.86251294  0.03455270  0.66445977     0.35000
C853        C  0.58939405  0.79607674  0.23232628     0.20600
C854        C  0.57078965  0.76778781  0.25115324    -0.39300
C855        C  0.58915175  0.79171941  0.27108225     0.19500
C856        C  0.62315913  0.84006475  0.27193129     0.22200
C857        C  0.64133788  0.86809120  0.25332528    -0.39800
C858        C  0.62345834  0.84433712  0.23364763     0.21000
N859        N  0.58336387  0.78111265  0.21148059    -0.33100
C860        C  0.61454666  0.82016158  0.19977052    -0.10700
C861        C  0.63966145  0.86003898  0.21308320    -0.29500
N862        N  0.64014747  0.85330820  0.29204964    -0.46100
C863        C  0.61747624  0.81351558  0.30447429    -0.05300
C864        C  0.58461003  0.77420125  0.29203654    -0.22700
H865        H  0.54623254  0.72948428  0.25030105     0.19100
H866        H  0.66995825  0.90513927  0.25407071     0.17900
H867        H  0.66890648  0.89498731  0.20848762     0.14200
H868        H  0.56423285  0.73709704  0.29708350     0.14000
H869        H  0.56262970  0.74592412  0.20584185     0.32200
H870        H  0.66847107  0.88681801  0.29673130     0.35000
C871        C  0.71475214  0.73726745  0.48722032     0.20600
C872        C  0.70262019  0.70140868  0.50273247    -0.39300
C873        C  0.73577071  0.71271370  0.51951690     0.19500
C874        C  0.77766294  0.75666246  0.52105117     0.22200
C875        C  0.79003403  0.79258709  0.50531252    -0.39800
C876        C  0.75703569  0.78098509  0.48821287     0.21000
N877        N  0.68906066  0.73486485  0.46973739    -0.33100
C878        C  0.71507404  0.77703032  0.45918483    -0.10700
C879        C  0.75798782  0.80686230  0.47013648    -0.29500
N880        N  0.80356055  0.75765888  0.53842705    -0.46100
C881        C  0.77816542  0.71363468  0.54764019    -0.05300
C882        C  0.73565906  0.68490150  0.53632302    -0.22700
H883        H  0.66997800  0.66689788  0.50164495     0.19100
H884        H  0.82312398  0.82671767  0.50616076     0.17900
H885        H  0.78552475  0.84276941  0.46572241     0.14200
H886        H  0.70878027  0.64802119  0.53965696     0.14000
H887        H  0.65571860  0.70604037  0.46519350     0.32200
H888        H  0.83713067  0.78570253  0.54321217     0.35000
C889        C  0.84007467  0.02940557  0.36691666     0.20600
C890        C  0.86610092  0.07072952  0.35436482    -0.39300
C891        C  0.90173276  0.11102342  0.36524962     0.19500
C892        C  0.91067109  0.11055008  0.38709828     0.22200
C893        C  0.88446235  0.06895598  0.39971708    -0.39800
C894        C  0.84880891  0.02827078  0.38874041     0.21000
N895        N  0.80776177  0.98561045  0.35973048    -0.33100
C896        C  0.79562645  0.95574599  0.37692532    -0.10700
C897        C  0.82021526  0.98113637  0.39546897    -0.29500
N898        N  0.95017720  0.15178981  0.39294510    -0.46100
C899        C  0.96693307  0.17803799  0.37457389    -0.05300
C900        C  0.93716781  0.15396215  0.35706887    -0.22700
H901        H  0.86071197  0.07073043  0.33709598     0.19100
H902        H  0.89284180  0.06770199  0.41655276     0.17900
H903        H  0.81952378  0.96665376  0.41131405     0.14200
H904        H  0.94310077  0.16458052  0.34024763     0.14000
H905        H  0.79626384  0.97621850  0.34375960     0.32200
H906        H  0.96706998  0.15971166  0.40801973     0.35000
C907        C  0.46865769  0.59423353  0.37823217     0.20600
C908        C  0.42934180  0.56321347  0.36517745    -0.39300
C909        C  0.39011766  0.52559994  0.37600463     0.19500
C910        C  0.39051295  0.51935233  0.39811418     0.22200
C911        C  0.42977408  0.54988514  0.41109583    -0.39800
C912        C  0.46859085  0.58756616  0.40033728     0.21000
N913        N  0.50661710  0.63668135  0.37249299    -0.33100
C914        C  0.53008448  0.65748264  0.39114232    -0.10700
C915        C  0.50790536  0.62737649  0.40875238    -0.29500
N916        N  0.34742675  0.48478327  0.40498285    -0.46100
C917        C  0.31885922  0.46885021  0.38726320    -0.05300
C918        C  0.34436776  0.49302715  0.36873973    -0.22700
H919        H  0.42812349  0.56972704  0.34810343     0.19100
H920        H  0.42880744  0.54644393  0.42852102     0.17900
H921        H  0.51643138  0.63571764  0.42570557     0.14200
H922        H  0.33054462  0.48945386  0.35248726     0.14000
H923        H  0.51331000  0.65253082  0.35722696     0.32200
H924        H  0.33740249  0.47438813  0.42101268     0.35000
C925        C  0.89401158  0.80292801  0.36303073     0.20600
C926        C  0.93140397  0.80716674  0.34976977    -0.39300
C927        C  0.97539286  0.82204440  0.36008046     0.19500
C928        C  0.98194221  0.83217130  0.38198289     0.22200
C929        C  0.94434773  0.82780869  0.39534823    -0.39800
C930        C  0.90000740  0.81260804  0.38499525     0.21000
N931        N  0.85055865  0.79433090  0.35654151    -0.33100
C932        C  0.82846985  0.79878000  0.37437963    -0.10700
C933        C  0.85785589  0.80938038  0.39258640    -0.29500
N934        N  0.02816193  0.84849333  0.38747637    -0.46100
C935        C  0.05091385  0.84867437  0.36888453    -0.05300
C936        C  0.01908381  0.83229923  0.35150753    -0.22700
H937        H  0.92702584  0.80101847  0.33249781     0.19100
H938        H  0.94966626  0.83715367  0.41234337     0.17900
H939        H  0.85106688  0.81793726  0.40869865     0.14200
H940        H  0.02719705  0.82984820  0.33470556     0.14000
H941        H  0.83796375  0.78893803  0.34064205     0.32200
H942        H  0.04353663  0.86011258  0.40274969     0.35000
C943        C  0.39694532  0.85930311  0.40240883     0.20600
C944        C  0.43095284  0.85599100  0.41540263    -0.39300
C945        C  0.46518718  0.84885924  0.40439197     0.19500
C946        C  0.46602850  0.84589811  0.38208198     0.22200
C947        C  0.43228913  0.84983060  0.36903484    -0.39800
C948        C  0.39753783  0.85637401  0.38007920     0.21000
N949        N  0.35704424  0.85915163  0.40918701    -0.33100
C950        C  0.33144192  0.85537583  0.39115314    -0.10700
C951        C  0.35601872  0.85452611  0.37260128    -0.29500
N952        N  0.49982498  0.83517729  0.37569970    -0.46100
C953        C  0.52036779  0.83097755  0.39409928    -0.05300
C954        C  0.49979792  0.83953460  0.41230099    -0.22700
H955        H  0.42920485  0.85622296  0.43288055     0.19100
H956        H  0.43153543  0.84545974  0.35165649     0.17900
H957        H  0.34312360  0.84868356  0.35610010     0.14200
H958        H  0.50791626  0.83752351  0.42911022     0.11600
H959        H  0.34618748  0.85800354  0.42522418     0.32200
H960        H  0.50734798  0.82951238  0.35986645     0.35000
loop_ 
_geom_bond_atom_site_label_1 
_geom_bond_atom_site_label_2 
_geom_bond_distance 
_geom_bond_site_symmetry_2 
_ccdc_geom_bond_type 
O1           Ni7   1.928       .  S
O1           C22   1.270       .  A
O2          Ni25   1.922       .  S
O2           C11   1.271       .  A
O3           Ni7   1.899       .  S
O3          Ni25   1.917       .  S
O3          Ni19   1.918       .  S
O3           H26   0.966       .  S
C4           O21   1.282       .  A
C4           O13   1.279       .  A
C4          C953   1.478       .  S
O5          Ni24   1.928       .  S
O5           C11   1.270       .  A
O6          Ni24   1.901       .  S
O6            C8   1.267       .  A
Ni7          O10   1.926       .  S
Ni7          O12   1.901       .  S
C8           O18   1.272       .  A
C8          C914   1.474       .  S
O9          Ni25   1.917       .  S
O9           C15   1.275       .  A
O10          C15   1.277       .  A
C11         C878   1.474       .  S
O12          C14   1.268       .  A
O13         Ni24   1.923       .  S
C14          O20   1.275       .  A
C14         C896   1.479       .  S
C15         C932   1.472       .  S
H16          O17   0.966       .  S
O17         Ni25   1.908       .  S
O17         Ni19   1.908       .  S
O17         Ni24   1.894       .  S
O18         Ni19   1.935       .  S
Ni19         O23   1.934       .  S
Ni19         O21   1.936       .  S
O20         Ni25   1.946       .  S
C22          O23   1.272       .  A
C22         C863   1.480       .  S
O27         Ni33   1.930       .  S
O27          C48   1.271       .  A
O28         Ni51   1.924       .  S
O28          C37   1.271       .  A
O29         Ni33   1.911       .  S
O29         Ni51   1.920       .  S
O29         Ni45   1.923       .  S
O29          H52   0.966       .  S
C30          O47   1.280       .  A
C30          O39   1.278       .  A
C30         C824   1.474       .  S
O31         Ni50   1.927       .  S
O31          C37   1.271       .  A
O32         Ni50   1.902       .  S
O32          C34   1.266       .  A
Ni33         O36   1.927       .  S
Ni33         O38   1.905       .  S
C34          O44   1.270       .  A
C34         C788   1.468       .  S
O35         Ni51   1.908       .  S
O35          C41   1.270       .  A
O36          C41   1.273       .  A
C37         C881   1.477       .  S
O38          C40   1.271       .  A
O39         Ni50   1.918       .  S
C40          O46   1.278       .  A
C40         C806   1.473       .  S
C41         C842   1.468       .  S
H42          O43   0.968       .  S
O43         Ni51   1.903       .  S
O43         Ni45   1.899       .  S
O43         Ni50   1.896       .  S
O44         Ni45   1.923       .  S
Ni45         O49   1.910       .  S
Ni45         O47   1.932       .  S
O46         Ni51   1.946       .  S
C48          O49   1.268       .  A
C48         C770   1.466       .  S
O53         Ni59   1.938       .  S
O53          C74   1.273       .  A
O54         Ni77   1.918       .  S
O54          C63   1.267       .  A
O55         Ni59   1.913       .  S
O55         Ni77   1.923       .  S
O55         Ni71   1.926       .  S
O55          H78   0.966       .  S
C56          O73   1.280       .  A
C56          O65   1.276       .  A
C56         C734   1.476       .  S
O57         Ni76   1.925       .  S
O57          C63   1.270       .  A
O58         Ni76   1.906       .  S
O58          C60   1.268       .  A
Ni59         O62   1.932       .  S
Ni59         O64   1.906       .  S
C60          O70   1.272       .  A
C60         C950   1.475       .  S
O61         Ni77   1.911       .  S
O61          C67   1.270       .  A
O62          C67   1.275       .  A
C63         C698   1.472       .  S
O64          C66   1.271       .  A
O65         Ni76   1.918       .  S
C66          O72   1.274       .  A
C66         C935   1.472       .  S
C67         C716   1.475   1_565  S
H68          O69   0.967       .  S
O69         Ni77   1.907       .  S
O69         Ni71   1.904       .  S
O69         Ni76   1.901       .  S
O70         Ni71   1.930       .  S
Ni71         O75   1.913       .  S
Ni71         O73   1.932       .  S
O72         Ni77   1.936       .  S
C74          O75   1.268       .  A
C74         C755   1.472       .  S
O79         Ni85   1.916       .  S
O79         C100   1.266       .  A
O80        Ni103   1.914       .  S
O80          C89   1.266       .  A
O81         Ni85   1.909       .  S
O81        Ni103   1.916       .  S
O81         Ni97   1.923       .  S
O81         H104   0.967       .  S
C82          O99   1.279       .  A
C82          O91   1.278       .  A
C82         C791   1.472       .  S
O83        Ni102   1.933       .  S
O83          C89   1.272       .  A
O84        Ni102   1.906       .  S
O84          C86   1.268       .  A
Ni85         O88   1.921       .  S
Ni85         O90   1.908       .  S
C86          O96   1.269       .  A
C86         C665   1.469       .  S
O87        Ni103   1.918       .  S
O87          C93   1.274       .  A
O88          C93   1.275       .  A
C89         C701   1.471       .  S
O90          C92   1.268       .  A
O91        Ni102   1.919       .  S
C92          O98   1.271       .  A
C92         C680   1.472       .  S
C93         C809   1.471   1_545  S
H94          O95   0.967       .  S
O95        Ni103   1.910       .  S
O95         Ni97   1.910       .  S
O95        Ni102   1.898       .  S
O96         Ni97   1.922       .  S
Ni97        O101   1.921       .  S
Ni97         O99   1.928       .  S
O98        Ni103   1.930       .  S
C100        O101   1.267       .  A
C100        C644   1.467       .  S
O105       Ni111   1.917       .  S
O105        C126   1.266       .  A
O106       Ni129   1.914       .  S
O106        C115   1.267       .  A
O107       Ni111   1.910       .  S
O107       Ni129   1.916       .  S
O107       Ni123   1.926       .  S
O107        H130   0.967       .  S
C108        O125   1.281       .  A
C108        O117   1.278       .  A
C108        C917   1.474       .  S
O109       Ni128   1.935       .  S
O109        C115   1.273       .  A
O110       Ni128   1.904       .  S
O110        C112   1.268       .  A
Ni111       O114   1.922       .  S
Ni111       O116   1.904       .  S
C112        O122   1.273       .  A
C112        C737   1.477       .  S
O113       Ni129   1.920       .  S
O113        C119   1.275       .  A
O114        C119   1.275       .  A
C115        C611   1.473       .  S
O116        C118   1.269       .  A
O117       Ni128   1.918       .  S
C118        O124   1.271       .  A
C118        C719   1.475       .  S
C119        C899   1.475   1_455  S
H120        O121   0.967       .  S
O121       Ni129   1.908       .  S
O121       Ni123   1.908       .  S
O121       Ni128   1.895       .  S
O122       Ni123   1.935       .  S
Ni123       O127   1.923       .  S
Ni123       O125   1.934       .  S
O124       Ni129   1.934       .  S
C126        O127   1.269       .  A
C126        C626   1.467       .  S
O131       Ni137   1.919       .  S
O131        C152   1.267       .  A
O132       Ni155   1.915       .  S
O132        C141   1.267       .  A
O133       Ni137   1.905       .  S
O133       Ni155   1.911       .  S
O133       Ni149   1.924       .  S
O133        H156   0.966       .  S
C134        O151   1.280       .  A
C134        O143   1.277       .  A
C134        C662   1.472       .  S
O135       Ni154   1.932       .  S
O135        C141   1.273       .  A
O136       Ni154   1.906       .  S
O136        C138   1.268       .  A
Ni137       O140   1.922       .  S
Ni137       O142   1.906       .  S
C138        O148   1.272       .  A
C138        C827   1.475       .  S
O139       Ni155   1.917       .  S
O139        C145   1.274       .  A
O140        C145   1.276       .  A
C141        C608   1.475       .  S
O142        C144   1.269       .  A
O143       Ni154   1.919       .  S
C144        O150   1.272       .  A
C144        C845   1.471       .  S
C145        C683   1.472   1_655  S
H146        O147   0.967       .  S
O147       Ni155   1.911       .  S
O147       Ni149   1.910       .  S
O147       Ni154   1.896       .  S
O148       Ni149   1.931       .  S
Ni149       O153   1.926       .  S
Ni149       O151   1.929       .  S
O150       Ni155   1.927       .  S
C152        O153   1.270       .  A
C152        C590   1.469       .  S
O157       Ni163   1.931       .  S
O157        C178   1.270       .  A
O158       Ni181   1.923       .  S
O158        C167   1.270       .  A
O159       Ni163   1.906       .  S
O159       Ni181   1.915       .  S
O159       Ni175   1.915       .  S
O159        H182   0.966       .  S
C160        O177   1.279       .  A
C160        O169   1.278       .  A
C160        C536   1.479       .  S
O161       Ni180   1.931       .  S
O161        C167   1.272       .  A
O162       Ni180   1.907       .  S
O162        C164   1.268       .  A
Ni163       O166   1.927       .  S
Ni163       O168   1.900       .  S
C164        O174   1.271       .  A
C164        C518   1.474       .  S
O165       Ni181   1.916       .  S
O165        C171   1.275       .  A
O166        C171   1.277       .  A
C167        C572   1.479       .  S
O168        C170   1.267       .  A
O169       Ni180   1.925       .  S
C170        O176   1.273       .  A
C170        C500   1.472       .  S
C171        C554   1.472       .  S
H172        O173   0.968       .  S
O173       Ni181   1.912       .  S
O173       Ni175   1.908       .  S
O173       Ni180   1.897       .  S
O174       Ni175   1.929       .  S
Ni175       O179   1.914       .  S
Ni175       O177   1.931       .  S
O176       Ni181   1.935       .  S
C178        O179   1.267       .  A
C178        C629   1.468       .  S
O183       Ni189   1.928       .  S
O183        C204   1.270       .  A
O184       Ni207   1.917       .  S
O184        C193   1.267       .  A
O185       Ni189   1.909       .  S
O185       Ni207   1.917       .  S
O185       Ni201   1.916       .  S
O185        H208   0.967       .  S
C186        O203   1.278       .  A
C186        O195   1.279       .  A
C186        C464   1.469       .  S
O187       Ni206   1.937       .  S
O187        C193   1.274       .  A
O188       Ni206   1.907       .  S
O188        C190   1.269       .  A
Ni189       O192   1.927       .  S
Ni189       O194   1.898       .  S
C190        O200   1.274       .  A
C190        C428   1.476       .  S
O191       Ni207   1.904       .  S
O191        C197   1.271       .  A
O192        C197   1.276       .  A
C193        C575   1.478       .  S
O194        C196   1.267       .  A
O195       Ni206   1.921       .  S
C196        O202   1.271       .  A
C196        C446   1.471       .  S
C197        C482   1.467       .  S
H198        O199   0.967       .  S
O199       Ni207   1.902       .  S
O199       Ni201   1.909       .  S
O199       Ni206   1.896       .  S
O200       Ni201   1.933       .  S
Ni201       O205   1.925       .  S
Ni201       O203   1.922       .  S
O202       Ni207   1.934       .  S
C204        O205   1.269       .  A
C204        C647   1.473       .  S
O209       Ni215   1.929       .  S
O209        C230   1.272       .  A
O210       Ni233   1.915       .  S
O210        C219   1.268       .  A
O211       Ni215   1.908       .  S
O211       Ni233   1.917       .  S
O211       Ni227   1.925       .  S
O211        H234   0.966       .  S
C212        O229   1.281       .  A
C212        O221   1.277       .  A
C212        C410   1.470       .  S
O213       Ni232   1.923       .  S
O213        C219   1.269       .  A
O214       Ni232   1.910       .  S
O214        C216   1.267       .  A
Ni215       O218   1.926       .  S
Ni215       O220   1.908       .  S
C216        O226   1.269       .  A
C216        C539   1.474       .  S
O217       Ni233   1.904       .  S
O217        C223   1.268       .  A
O218        C223   1.273       .  A
C219        C377   1.467       .  S
O220        C222   1.272       .  A
O221       Ni232   1.913       .  S
C222        O228   1.277       .  A
C222        C557   1.473       .  S
C223        C395   1.466   1_455  S
H224        O225   0.967       .  S
O225       Ni233   1.899       .  S
O225       Ni227   1.894       .  S
O225       Ni232   1.895       .  S
O226       Ni227   1.923       .  S
Ni227       O231   1.909       .  S
Ni227       O229   1.931       .  S
O228       Ni233   1.941       .  S
C230        O231   1.268       .  A
C230        C752   1.468       .  S
O235       Ni241   1.933       .  S
O235        C256   1.272       .  A
O236       Ni259   1.908       .  S
O236        C245   1.266       .  A
O237       Ni241   1.905       .  S
O237       Ni259   1.916       .  S
O237       Ni253   1.922       .  S
O237        H260   0.967       .  S
C238        O255   1.281       .  A
C238        O247   1.277       .  A
C238        C431   1.475       .  S
O239       Ni258   1.928       .  S
O239        C245   1.271       .  A
O240       Ni258   1.907       .  S
O240        C242   1.267       .  A
Ni241       O244   1.930       .  S
Ni241       O246   1.902       .  S
C242        O252   1.269       .  A
C242        C359   1.473       .  S
O243       Ni259   1.907       .  S
O243        C249   1.270       .  A
O244        C249   1.275       .  A
C245        C374   1.465       .  S
O246        C248   1.269       .  A
O247       Ni258   1.914       .  S
C248        O254   1.274       .  A
C248        C338   1.471       .  S
C249        C449   1.469   1_655  S
H250        O251   0.966       .  S
O251       Ni259   1.900       .  S
O251       Ni253   1.896       .  S
O251       Ni258   1.892       .  S
O252       Ni253   1.925       .  S
Ni253       O257   1.900       .  S
Ni253       O255   1.937       .  S
O254       Ni259   1.938       .  S
C256        O257   1.265       .  A
C256        C773   1.461       .  S
O261       Ni267   1.917       .  S
O261        C282   1.267       .  A
O262       Ni285   1.923       .  S
O262        C271   1.270       .  A
O263       Ni267   1.905       .  S
O263       Ni285   1.917       .  S
O263       Ni279   1.926       .  S
O263        H286   0.965       .  S
C264        O281   1.279       .  A
C264        O273   1.277       .  A
C264        C521   1.475       .  S
O265       Ni284   1.933       .  S
O265        C271   1.272       .  A
O266       Ni284   1.905       .  S
O266        C268   1.268       .  A
Ni267       O270   1.923       .  S
Ni267       O272   1.902       .  S
C268        O278   1.271       .  A
C268        C413   1.470       .  S
O269       Ni285   1.920       .  S
O269        C275   1.275       .  A
O270        C275   1.276       .  A
C271        C320   1.481       .  S
O272        C274   1.269       .  A
O273       Ni284   1.918       .  S
C274        O280   1.272       .  A
C274        C392   1.471       .  S
C275        C503   1.472   1_565  S
H276        O277   0.966       .  S
O277       Ni285   1.913       .  S
O277       Ni279   1.920       .  S
O277       Ni284   1.901       .  S
O278       Ni279   1.925       .  S
Ni279       O283   1.935       .  S
Ni279       O281   1.931       .  S
O280       Ni285   1.932       .  S
C282        O283   1.270       .  A
C282        C860   1.478       .  S
O287       Ni293   1.920       .  S
O287        C308   1.266       .  A
O288       Ni311   1.917       .  S
O288        C297   1.270       .  A
O289       Ni293   1.896       .  S
O289       Ni311   1.910       .  S
O289       Ni305   1.914       .  S
O289        H312   0.966       .  S
C290        O307   1.279       .  A
C290        O299   1.281       .  A
C290        C356   1.476       .  S
O291       Ni310   1.940       .  S
O291        C297   1.274       .  A
O292       Ni310   1.898       .  S
O292        C294   1.267       .  A
Ni293       O296   1.917       .  S
Ni293       O298   1.892       .  S
C294        O304   1.270       .  A
C294        C467   1.466       .  S
O295       Ni311   1.921       .  S
O295        C301   1.276       .  A
O296        C301   1.276       .  A
C297        C323   1.478       .  S
O298        C300   1.266       .  A
O299       Ni310   1.928       .  S
C300        O306   1.273       .  A
C300        C485   1.468       .  S
C301        C341   1.471   1_545  S
H302        O303   0.967       .  S
O303       Ni311   1.907       .  S
O303       Ni305   1.908       .  S
O303       Ni310   1.891       .  S
O304       Ni305   1.925       .  S
Ni305       O309   1.924       .  S
Ni305       O307   1.927       .  S
O306       Ni311   1.935       .  S
C308        O309   1.268       .  A
C308        C593   1.468       .  S
C313        C318   1.384       .  A
C313        C314   1.410       .  A
C313        N319   1.351       .  A
C314        C315   1.410   1_564  A
C314        H325   1.082       .  S
C315        C324   1.388       .  A
C315        C316   1.384   1_545  A
C316        C317   1.403       .  A
C316        N322   1.343   1_565  A
C317        C318   1.402   1_556  A
C317        H326   1.083       .  S
C318        C321   1.376       .  A
N319        C320   1.359       .  A
N319        H329   1.044       .  S
C320        C321   1.396       .  A
C321        H327   1.083       .  S
N322        C323   1.356       .  A
N322        H330   1.045       .  S
C323        C324   1.399       .  A
C324        H328   1.082       .  S
C331        C336   1.385       .  A
C331        C332   1.397       .  A
C331        N337   1.338       .  A
C332        C333   1.396       .  A
C332        H343   1.083       .  S
C333        C342   1.370       .  A
C333        C334   1.384       .  A
C334        C335   1.409       .  A
C334        N340   1.347       .  A
C335        C336   1.408       .  A
C335        H344   1.082       .  S
C336        C339   1.385       .  A
N337        C338   1.353       .  A
N337        H347   1.045       .  S
C338        C339   1.399       .  A
C339        H345   1.082       .  S
N340        C341   1.359       .  A
N340        H348   1.045       .  S
C341        C342   1.393       .  A
C342        H346   1.083       .  S
C349        C354   1.384       .  A
C349        C350   1.409       .  A
C349        N355   1.349       .  A
C350        C351   1.409       .  A
C350        H361   1.082       .  S
C351        C360   1.385       .  A
C351        C352   1.385       .  A
C352        C353   1.399       .  A
C352        N358   1.339       .  A
C353        C354   1.398       .  A
C353        H362   1.082       .  S
C354        C357   1.372       .  A
N355        C356   1.359       .  A
N355        H365   1.045       .  S
C356        C357   1.393       .  A
C357        H363   1.083       .  S
N358        C359   1.353       .  A
N358        H366   1.045       .  S
C359        C360   1.400       .  A
C360        H364   1.082       .  S
C367        C372   1.385       .  A
C367        C368   1.408       .  A
C367        N373   1.346       .  A
C368        C369   1.407   1_656  A
C368        H379   1.082       .  S
C369        C378   1.385       .  A
C369        C370   1.385       .  A
C370        C371   1.397       .  A
C370        N376   1.337       .  A
C371        C372   1.395   1_454  A
C371        H380   1.083       .  S
C372        C375   1.371       .  A
N373        C374   1.356       .  A
N373        H383   1.045       .  S
C374        C375   1.391       .  A
C375        H381   1.083       .  S
N376        C377   1.353       .  A
N376        H384   1.045       .  S
C377        C378   1.397       .  A
C378        H382   1.082       .  S
C385        C390   1.384       .  A
C385        C386   1.408       .  A
C385        N391   1.348       .  A
C386        C387   1.407       .  A
C386        H397   1.082       .  S
C387        C396   1.382       .  A
C387        C388   1.385       .  A
C388        C389   1.397       .  A
C388        N394   1.338       .  A
C389        C390   1.396       .  A
C389        H398   1.083       .  S
C390        C393   1.369       .  A
N391        C392   1.358       .  A
N391        H401   1.045       .  S
C392        C393   1.392       .  A
C393        H399   1.083       .  S
N394        C395   1.352       .  A
N394        H402   1.045       .  S
C395        C396   1.397       .  A
C396        H400   1.082       .  S
C403        C408   1.385       .  A
C403        C404   1.404       .  A
C403        N409   1.344       .  A
C404        C405   1.403       .  A
C404        H415   1.082       .  S
C405        C414   1.380       .  A
C405        C406   1.385       .  A
C406        C407   1.401       .  A
C406        N412   1.341       .  A
C407        C408   1.400       .  A
C407        H416   1.083       .  S
C408        C411   1.375       .  A
N409        C410   1.355       .  A
N409        H419   1.045       .  S
C410        C411   1.396       .  A
C411        H417   1.083       .  S
N412        C413   1.355       .  A
N412        H420   1.045       .  S
C413        C414   1.396       .  A
C414        H418   1.082       .  S
C421        C426   1.384       .  A
C421        C422   1.401       .  A
C421        N427   1.343       .  A
C422        C423   1.400       .  A
C422        H433   1.083       .  S
C423        C432   1.372       .  A
C423        C424   1.384       .  A
C424        C425   1.407       .  A
C424        N430   1.349       .  A
C425        C426   1.408       .  A
C425        H434   1.082       .  S
C426        C429   1.383       .  A
N427        C428   1.356       .  A
N427        H437   1.045       .  S
C428        C429   1.398       .  A
C429        H435   1.082       .  S
N430        C431   1.358       .  A
N430        H438   1.045       .  S
C431        C432   1.395       .  A
C432        H436   1.083       .  S
C439        C444   1.384       .  A
C439        C440   1.409       .  A
C439        N445   1.348   1_565  A
C440        C441   1.409       .  A
C440        H451   1.082       .  S
C441        C450   1.384       .  A
C441        C442   1.386       .  A
C442        C443   1.396       .  A
C442        N448   1.338       .  A
C443        C444   1.395       .  A
C443        H452   1.083       .  S
C444        C447   1.368   1_565  A
N445        C446   1.359       .  A
N445        H455   1.045       .  S
C446        C447   1.391       .  A
C447        H453   1.083       .  S
N448        C449   1.352       .  A
N448        H456   1.045       .  S
C449        C450   1.399       .  A
C450        H454   1.083       .  S
C457        C462   1.384       .  A
C457        C458   1.406       .  A
C457        N463   1.346       .  A
C458        C459   1.406       .  A
C458        H469   1.082       .  S
C459        C468   1.382       .  A
C459        C460   1.385       .  A
C460        C461   1.397       .  A
C460        N466   1.337       .  A
C461        C462   1.395       .  A
C461        H470   1.083       .  S
C462        C465   1.370       .  A
N463        C464   1.357       .  A
N463        H473   1.045       .  S
C464        C465   1.392       .  A
C465        H471   1.083       .  S
N466        C467   1.353       .  A
N466        H474   1.045       .  S
C467        C468   1.397       .  A
C468        H472   1.082       .  S
C475        C480   1.385       .  A
C475        C476   1.399       .  A
C475        N481   1.342       .  A
C476        C477   1.399       .  A
C476        H487   1.083       .  S
C477        C486   1.370   1_455  A
C477        C478   1.385       .  A
C478        C479   1.403       .  A
C478        N484   1.347   1_455  A
C479        C480   1.404       .  A
C479        H488   1.082       .  S
C480        C483   1.377       .  A
N481        C482   1.354       .  A
N481        H491   1.045       .  S
C482        C483   1.396       .  A
C483        H489   1.083       .  S
N484        C485   1.355       .  A
N484        H492   1.045       .  S
C485        C486   1.394       .  A
C486        H490   1.083       .  S
C493        C498   1.385       .  A
C493        C494   1.400       .  A
C493        N499   1.340       .  A
C494        C495   1.399       .  A
C494        H505   1.083       .  S
C495        C504   1.375       .  A
C495        C496   1.385       .  A
C496        C497   1.407       .  A
C496        N502   1.346       .  A
C497        C498   1.406       .  A
C497        H506   1.082       .  S
C498        C501   1.384   1_655  A
N499        C500   1.355   1_655  A
N499        H509   1.045       .  S
C500        C501   1.397       .  A
C501        H507   1.082       .  S
N502        C503   1.357       .  A
N502        H510   1.045       .  S
C503        C504   1.394       .  A
C504        H508   1.083       .  S
C511        C516   1.385       .  A
C511        C512   1.400       .  A
C511        N517   1.341       .  A
C512        C513   1.399       .  A
C512        H523   1.083       .  S
C513        C522   1.372       .  A
C513        C514   1.384       .  A
C514        C515   1.408       .  A
C514        N520   1.349       .  A
C515        C516   1.408       .  A
C515        H524   1.082       .  S
C516        C519   1.384       .  A
N517        C518   1.354       .  A
N517        H527   1.045       .  S
C518        C519   1.398       .  A
C519        H525   1.082       .  S
N520        C521   1.358       .  A
N520        H528   1.045       .  S
C521        C522   1.394       .  A
C522        H526   1.083       .  S
C529        C534   1.384       .  A
C529        C530   1.408       .  A
C529        N535   1.348       .  A
C530        C531   1.407       .  A
C530        H541   1.082       .  S
C531        C540   1.383       .  A
C531        C532   1.384       .  A
C532        C533   1.401       .  A
C532        N538   1.342       .  A
C533        C534   1.401       .  A
C533        H542   1.082       .  S
C534        C537   1.375       .  A
N535        C536   1.358       .  A
N535        H545   1.045       .  S
C536        C537   1.396       .  A
C537        H543   1.083       .  S
N538        C539   1.355       .  A
N538        H546   1.045       .  S
C539        C540   1.398       .  A
C540        H544   1.082       .  S
C547        C552   1.385       .  A
C547        C548   1.406       .  A
C547        N553   1.346       .  A
C548        C549   1.405       .  A
C548        H559   1.082       .  S
C549        C558   1.381   1_545  A
C549        C550   1.385       .  A
C550        C551   1.401       .  A
C550        N556   1.341   1_545  A
C551        C552   1.400       .  A
C551        H560   1.082       .  S
C552        C555   1.375       .  A
N553        C554   1.357       .  A
N553        H563   1.045       .  S
C554        C555   1.394       .  A
C555        H561   1.083       .  S
N556        C557   1.355       .  A
N556        H564   1.045       .  S
C557        C558   1.397       .  A
C558        H562   1.082       .  S
C565        C570   1.384       .  A
C565        C566   1.399       .  A
C565        N571   1.339       .  A
C566        C567   1.397   1_554  A
C566        H577   1.082       .  S
C567        C576   1.373       .  A
C567        C568   1.384       .  A
C568        C569   1.414       .  A
C568        N574   1.352       .  A
C569        C570   1.413   1_556  A
C569        H578   1.082       .  S
C570        C573   1.391       .  A
N571        C572   1.354       .  A
N571        H581   1.045       .  S
C572        C573   1.402       .  A
C573        H579   1.082       .  S
N574        C575   1.360       .  A
N574        H582   1.044       .  S
C575        C576   1.392       .  A
C576        H580   1.083       .  S
C583        C588   1.384       .  A
C583        C584   1.400       .  A
C583        N589   1.340       .  A
C584        C585   1.398       .  A
C584        H595   1.083       .  S
C585        C594   1.373       .  A
C585        C586   1.384       .  A
C586        C587   1.410       .  A
C586        N592   1.349       .  A
C587        C588   1.409       .  A
C587        H596   1.082       .  S
C588        C591   1.388       .  A
N589        C590   1.353       .  A
N589        H599   1.045       .  S
C590        C591   1.398       .  A
C591        H597   1.082       .  S
N592        C593   1.357       .  A
N592        H600   1.045       .  S
C593        C594   1.393       .  A
C594        H598   1.083       .  S
C601        C606   1.384       .  A
C601        C602   1.411   1_655  A
C601        N607   1.352       .  A
C602        C603   1.412       .  A
C602        H613   1.082       .  S
C603        C612   1.387       .  A
C603        C604   1.385       .  A
C604        C605   1.398       .  A
C604        N610   1.340       .  A
C605        C606   1.397   1_455  A
C605        H614   1.082       .  S
C606        C609   1.370       .  A
N607        C608   1.360       .  A
N607        H617   1.044       .  S
C608        C609   1.391       .  A
C609        H615   1.083       .  S
N610        C611   1.353       .  A
N610        H618   1.045       .  S
C611        C612   1.400       .  A
C612        H616   1.082       .  S
C619        C624   1.385       .  A
C619        C620   1.401       .  A
C619        N625   1.340       .  A
C620        C621   1.399       .  A
C620        H631   1.083       .  S
C621        C630   1.375       .  A
C621        C622   1.385       .  A
C622        C623   1.407       .  A
C622        N628   1.346       .  A
C623        C624   1.406       .  A
C623        H632   1.082       .  S
C624        C627   1.385       .  A
N625        C626   1.354       .  A
N625        H635   1.045       .  S
C626        C627   1.395       .  A
C627        H633   1.082       .  S
N628        C629   1.356       .  A
N628        H636   1.045       .  S
C629        C630   1.393       .  A
C630        H634   1.083       .  S
C637        C642   1.385       .  A
C637        C638   1.399       .  A
C637        N643   1.339       .  A
C638        C639   1.398       .  A
C638        H649   1.083       .  S
C639        C648   1.372       .  A
C639        C640   1.384       .  A
C640        C641   1.411       .  A
C640        N646   1.350       .  A
C641        C642   1.409       .  A
C641        H650   1.082       .  S
C642        C645   1.388       .  A
N643        C644   1.352       .  A
N643        H653   1.045       .  S
C644        C645   1.397       .  A
C645        H651   1.082       .  S
N646        C647   1.359       .  A
N646        H654   1.045       .  S
C647        C648   1.393       .  A
C648        H652   1.083       .  S
C655        C660   1.385       .  A
C655        C656   1.400       .  A
C655        N661   1.339       .  A
C656        C657   1.398       .  A
C656        H667   1.082       .  S
C657        C666   1.374       .  A
C657        C658   1.384       .  A
C658        C659   1.407       .  A
C658        N664   1.345       .  A
C659        C660   1.406       .  A
C659        H668   1.082       .  S
C660        C663   1.384       .  A
N661        C662   1.355       .  A
N661        H671   1.045       .  S
C662        C663   1.398       .  A
C663        H669   1.082       .  S
N664        C665   1.358       .  A
N664        H672   1.045       .  S
C665        C666   1.393       .  A
C666        H670   1.083       .  S
C673        C678   1.384       .  A
C673        C674   1.401       .  A
C673        N679   1.342       .  A
C674        C675   1.401       .  A
C674        H685   1.082       .  S
C675        C684   1.375       .  A
C675        C676   1.385       .  A
C676        C677   1.406       .  A
C676        N682   1.346       .  A
C677        C678   1.405       .  A
C677        H686   1.082       .  S
C678        C681   1.381       .  A
N679        C680   1.355       .  A
N679        H689   1.045       .  S
C680        C681   1.397       .  A
C681        H687   1.082       .  S
N682        C683   1.357       .  A
N682        H690   1.045       .  S
C683        C684   1.394       .  A
C684        H688   1.083       .  S
C691        C696   1.385       .  A
C691        C692   1.397       .  A
C691        N697   1.337       .  A
C692        C693   1.395   1_565  A
C692        H703   1.083       .  S
C693        C702   1.370       .  A
C693        C694   1.384       .  A
C694        C695   1.412       .  A
C694        N700   1.350       .  A
C695        C696   1.411   1_545  A
C695        H704   1.082       .  S
C696        C699   1.389       .  A
N697        C698   1.352       .  A
N697        H707   1.045       .  S
C698        C699   1.400       .  A
C699        H705   1.082       .  S
N700        C701   1.359       .  A
N700        H708   1.044       .  S
C701        C702   1.390       .  A
C702        H706   1.083       .  S
C709        C714   1.385       .  A
C709        C710   1.398       .  A
C709        N715   1.340       .  A
C710        C711   1.397       .  A
C710        H721   1.082       .  S
C711        C720   1.371       .  A
C711        C712   1.384       .  A
C712        C713   1.410       .  A
C712        N718   1.349       .  A
C713        C714   1.410       .  A
C713        H722   1.082       .  S
C714        C717   1.386       .  A
N715        C716   1.353       .  A
N715        H725   1.045       .  S
C716        C717   1.400       .  A
C717        H723   1.082       .  S
N718        C719   1.360       .  A
N718        H726   1.045       .  S
C719        C720   1.392       .  A
C720        H724   1.083       .  S
C727        C732   1.384       .  A
C727        C728   1.402       .  A
C727        N733   1.341       .  A
C728        C729   1.401       .  A
C728        H739   1.083       .  S
C729        C738   1.375       .  A
C729        C730   1.384       .  A
C730        C731   1.408       .  A
C730        N736   1.348       .  A
C731        C732   1.407       .  A
C731        H740   1.082       .  S
C732        C735   1.384       .  A
N733        C734   1.356       .  A
N733        H743   1.045       .  S
C734        C735   1.398       .  A
C735        H741   1.082       .  S
N736        C737   1.358       .  A
N736        H744   1.045       .  S
C737        C738   1.396       .  A
C738        H742   1.083       .  S
C745        C750   1.385       .  A
C745        C746   1.403       .  A
C745        N751   1.342       .  A
C746        C747   1.402       .  A
C746        H757   1.083       .  S
C747        C756   1.379       .  A
C747        C748   1.385       .  A
C748        C749   1.408       .  A
C748        N754   1.347       .  A
C749        C750   1.406       .  A
C749        H758   1.082       .  S
C750        C753   1.384       .  A
N751        C752   1.354       .  A
N751        H761   1.045       .  S
C752        C753   1.394       .  A
C753        H759   1.082       .  S
N754        C755   1.357       .  A
N754        H762   1.045       .  S
C755        C756   1.393       .  A
C756        H760   1.082       .  S
C763        C768   1.385       .  A
C763        C764   1.400       .  A
C763        N769   1.343       .  A
C764        C765   1.399       .  A
C764        H775   1.083       .  S
C765        C774   1.372       .  A
C765        C766   1.385       .  A
C766        C767   1.406       .  A
C766        N772   1.347       .  A
C767        C768   1.406       .  A
C767        H776   1.083       .  S
C768        C771   1.380       .  A
N769        C770   1.353       .  A
N769        H779   1.045       .  S
C770        C771   1.396       .  A
C771        H777   1.082       .  S
N772        C773   1.356       .  A
N772        H780   1.045       .  S
C773        C774   1.389       .  A
C774        H778   1.083       .  S
C781        C786   1.385       .  A
C781        C782   1.398       .  A
C781        N787   1.340       .  A
C782        C783   1.398       .  A
C782        H793   1.083       .  S
C783        C792   1.371       .  A
C783        C784   1.384       .  A
C784        C785   1.407       .  A
C784        N790   1.347       .  A
C785        C786   1.407       .  A
C785        H794   1.082       .  S
C786        C789   1.381       .  A
N787        C788   1.354       .  A
N787        H797   1.045       .  S
C788        C789   1.397       .  A
C789        H795   1.082       .  S
N790        C791   1.358       .  A
N790        H798   1.045       .  S
C791        C792   1.393       .  A
C792        H796   1.083       .  S
C799        C804   1.385       .  A
C799        C800   1.400       .  A
C799        N805   1.341   1_455  A
C800        C801   1.399       .  A
C800        H811   1.083       .  S
C801        C810   1.372       .  A
C801        C802   1.384       .  A
C802        C803   1.407       .  A
C802        N808   1.348       .  A
C803        C804   1.407       .  A
C803        H812   1.082       .  S
C804        C807   1.381   1_455  A
N805        C806   1.355       .  A
N805        H815   1.045       .  S
C806        C807   1.397       .  A
C807        H813   1.082       .  S
N808        C809   1.357       .  A
N808        H816   1.045       .  S
C809        C810   1.393       .  A
C810        H814   1.083       .  S
C817        C822   1.384       .  A
C817        C818   1.407       .  A
C817        N823   1.346       .  A
C818        C819   1.406       .  A
C818        H829   1.082       .  S
C819        C828   1.383       .  A
C819        C820   1.384       .  A
C820        C821   1.401       .  A
C820        N826   1.341       .  A
C821        C822   1.400       .  A
C821        H830   1.083       .  S
C822        C825   1.375       .  A
N823        C824   1.357       .  A
N823        H833   1.045       .  S
C824        C825   1.395       .  A
C825        H831   1.083       .  S
N826        C827   1.356       .  A
N826        H834   1.045       .  S
C827        C828   1.398       .  A
C828        H832   1.082       .  S
C835        C840   1.385       .  A
C835        C836   1.406       .  A
C835        N841   1.347       .  A
C836        C837   1.406       .  A
C836        H847   1.082       .  S
C837        C846   1.381   1_565  A
C837        C838   1.385       .  A
C838        C839   1.398       .  A
C838        N844   1.340   1_565  A
C839        C840   1.398       .  A
C839        H848   1.083       .  S
C840        C843   1.371       .  A
N841        C842   1.357       .  A
N841        H851   1.045       .  S
C842        C843   1.392       .  A
C843        H849   1.083       .  S
N844        C845   1.354       .  A
N844        H852   1.045       .  S
C845        C846   1.397       .  A
C846        H850   1.082       .  S
C853        C858   1.384       .  A
C853        C854   1.415       .  A
C853        N859   1.354       .  A
C854        C855   1.415       .  A
C854        H865   1.082       .  S
C855        C864   1.393       .  A
C855        C856   1.384       .  A
C856        C857   1.399       .  A
C856        N862   1.340       .  A
C857        C858   1.397       .  A
C857        H866   1.083       .  S
C858        C861   1.372       .  A
N859        C860   1.361       .  A
N859        H869   1.044       .  S
C860        C861   1.391       .  A
C861        H867   1.083       .  S
N862        C863   1.354       .  A
N862        H870   1.045       .  S
C863        C864   1.403       .  A
C864        H868   1.082       .  S
C871        C876   1.384       .  A
C871        C872   1.400       .  A
C871        N877   1.340       .  A
C872        C873   1.399       .  A
C872        H883   1.083       .  S
C873        C882   1.373       .  A
C873        C874   1.384       .  A
C874        C875   1.410       .  A
C874        N880   1.351       .  A
C875        C876   1.410       .  A
C875        H884   1.082       .  S
C876        C879   1.387       .  A
N877        C878   1.355       .  A
N877        H887   1.045       .  S
C878        C879   1.398       .  A
C879        H885   1.082       .  S
N880        C881   1.358       .  A
N880        H888   1.044       .  S
C881        C882   1.395       .  A
C882        H886   1.083       .  S
C889        C894   1.384       .  A
C889        C890   1.401       .  A
C889        N895   1.340   1_545  A
C890        C891   1.399       .  A
C890        H901   1.083       .  S
C891        C900   1.375       .  A
C891        C892   1.384       .  A
C892        C893   1.410       .  A
C892        N898   1.348       .  A
C893        C894   1.409       .  A
C893        H902   1.082       .  S
C894        C897   1.388   1_545  A
N895        C896   1.356       .  A
N895        H905   1.045       .  S
C896        C897   1.400       .  A
C897        H903   1.082       .  S
N898        C899   1.358       .  A
N898        H906   1.045       .  S
C899        C900   1.395       .  A
C900        H904   1.083       .  S
C907        C912   1.385       .  A
C907        C908   1.408       .  A
C907        N913   1.347       .  A
C908        C909   1.406       .  A
C908        H919   1.082       .  S
C909        C918   1.385       .  A
C909        C910   1.384       .  A
C910        C911   1.400       .  A
C910        N916   1.339       .  A
C911        C912   1.399       .  A
C911        H920   1.083       .  S
C912        C915   1.374       .  A
N913        C914   1.357       .  A
N913        H923   1.045       .  S
C914        C915   1.395       .  A
C915        H921   1.083       .  S
N916        C917   1.355       .  A
N916        H924   1.045       .  S
C917        C918   1.398       .  A
C918        H922   1.082       .  S
C925        C930   1.385       .  A
C925        C926   1.400       .  A
C925        N931   1.340       .  A
C926        C927   1.398       .  A
C926        H937   1.082       .  S
C927        C936   1.374   1_655  A
C927        C928   1.384       .  A
C928        C929   1.407       .  A
C928        N934   1.346   1_655  A
C929        C930   1.407       .  A
C929        H938   1.082       .  S
C930        C933   1.383       .  A
N931        C932   1.354       .  A
N931        H941   1.045       .  S
C932        C933   1.398       .  A
C933        H939   1.083       .  S
N934        C935   1.358       .  A
N934        H942   1.045       .  S
C935        C936   1.393       .  A
C936        H940   1.082       .  S
C943        C948   1.385       .  A
C943        C944   1.402       .  A
C943        N949   1.342       .  A
C944        C945   1.401       .  A
C944        H955   1.083       .  S
C945        C954   1.377       .  A
C945        C946   1.384       .  A
C946        C947   1.407       .  A
C946        N952   1.347       .  A
C947        C948   1.406       .  A
C947        H956   1.082       .  S
C948        C951   1.383       .  A
N949        C950   1.356       .  A
N949        H959   1.045       .  S
C950        C951   1.397       .  A
C951        H957   1.082       .  S
N952        C953   1.357       .  A
N952        H960   1.044       .  S
C953        C954   1.397       .  A
C954        H958   1.083       .  S
