geometry optimzed in LAMMPS
_audit_creation_date              2020-12-01 
_audit_creation_method            'lammps2cif' 
_symmetry_space_group_name_H-M    'P1' 
_symmetry_Int_Tables_number       1 
_symmetry_cell_setting            triclinic 
loop_ 
_symmetry_equiv_pos_as_xyz 
  x,y,z 
_cell_length_a                    75.62384794 
_cell_length_b                    75.52936143961581 
_cell_length_c                    31.426332756347488 
_cell_angle_alpha                 89.937020174005 
_cell_angle_beta                  90.18811935511235 
_cell_angle_gamma                 120.18387125261756 
loop_ 
_atom_site_label 
_atom_site_type_symbol 
_atom_site_fract_x 
_atom_site_fract_y 
_atom_site_fract_z 
_atom_site_charge 
Fe1        Fe  0.32448738  0.88027226  0.49402500     1.65800
Fe2        Fe  0.37171491  0.89158278  0.46109981     1.73200
Fe3        Fe  0.34532703  0.85222739  0.52913039     1.54400
O4          O  0.33018877  0.85725272  0.57832152    -0.81800
O5          O  0.37121170  0.86673640  0.43358649    -0.80100
O6          O  0.32555085  0.88304974  0.55933369    -0.84300
O7          O  0.30219336  0.84941421  0.49690462    -0.79100
O8          O  0.37230528  0.87119355  0.55989733    -0.80900
O9          O  0.35488118  0.89222107  0.40924527    -0.83700
C10         C  0.30223638  0.83260669  0.49526061     0.97100
C11         C  0.32622454  0.87128308  0.58736698     1.04500
O12         O  0.34721520  0.87470564  0.49462580    -1.12600
O13         O  0.37501034  0.91824758  0.48528769    -0.75100
O14         O  0.34309462  0.91199942  0.49051838    -0.78600
O15         O  0.31830850  0.83161461  0.50090800    -0.79200
C16         C  0.36229153  0.92427878  0.49062764     0.96000
O17         O  0.32219720  0.87791807  0.42876969    -0.77200
O18         O  0.39147223  0.89265898  0.50870573    -0.82400
C19         C  0.36903031  0.85041209  0.44984755     0.98600
C20         C  0.38945791  0.88493151  0.54566277     1.04600
O21         O  0.36063931  0.84393851  0.48585643    -0.78000
C22         C  0.33598225  0.88474158  0.40039865     1.02900
Fe23       Fe  0.32412892  0.88256022  0.99301530     1.65800
Fe24       Fe  0.37259416  0.89502138  0.96588893     1.73200
Fe25       Fe  0.34468818  0.85425442  0.02982068     1.54400
O26         O  0.32884649  0.85858149  0.07821567    -0.81800
O27         O  0.37279666  0.87080005  0.93696676    -0.80100
O28         O  0.32195308  0.88283730  0.05863826    -0.84300
O29         O  0.30207608  0.85154299  0.98984461    -0.79100
O30         O  0.37131375  0.87259809  0.06303289    -0.80900
O31         O  0.35760264  0.89711744  0.91277625    -0.83700
C32         C  0.30220632  0.83474939  0.98992405     0.97100
C33         C  0.32292180  0.87121259  0.08666662     1.04500
O34         O  0.34712883  0.87728984  0.99625690    -1.12600
O35         O  0.37494739  0.92093115  0.99183633    -0.75100
O36         O  0.34280814  0.91437954  0.99510327    -0.78600
O37         O  0.31799665  0.83382941  0.99975425    -0.79200
C38         C  0.36200576  0.92668617  0.99720983     0.96000
O39         O  0.32443455  0.88271893  0.92728910    -0.77200
O40         O  0.39130312  0.89520142  0.01451137    -0.82400
C41         C  0.36967277  0.85384281  0.95166020     0.98600
C42         C  0.38875131  0.88661625  0.05053487     1.04600
O43         O  0.36048446  0.84661675  0.98666003    -0.78000
C44         C  0.33920813  0.89031131  0.90112263     1.02900
Fe45       Fe  0.44177026  0.12317089  0.01625352     1.65800
Fe46       Fe  0.47890245  0.11326425  0.04564694     1.73200
Fe47       Fe  0.48966042  0.15098025  0.97577611     1.54400
O48         O  0.46803781  0.14552869  0.92899204    -0.81800
O49         O  0.50224317  0.13907811  0.07287965    -0.80100
O50         O  0.43820560  0.11955449  0.95082077    -0.84300
O51         O  0.45017903  0.15400553  0.01209573    -0.79100
O52         O  0.49657804  0.13147244  0.94421507    -0.80900
O53         O  0.46108750  0.11089144  0.09776483    -0.83700
C54         C  0.46709708  0.17090881  0.01142835     0.97100
C55         C  0.44978656  0.13134910  0.92171469     1.04500
O56         O  0.47006007  0.12913633  0.01257053    -1.12600
O57         O  0.45614824  0.08641956  0.02060693    -0.75100
O58         O  0.42958915  0.09155053  0.02126255    -0.78600
O59         O  0.48408155  0.17187497  0.00469384    -0.79200
C60         C  0.43709380  0.07982066  0.01841057     0.96000
O61         O  0.44338359  0.12621977  0.08189621    -0.77200
O62         O  0.49842477  0.11364743  0.99853521    -0.82400
C63         C  0.51669399  0.15422499  0.05393518     0.98600
C64         C  0.50257183  0.11997277  0.96032762     1.04600
O65         O  0.51451178  0.15947574  0.01665986    -0.78000
C66         C  0.45012189  0.11846230  0.10886273     1.02900
Fe67       Fe  0.44004140  0.12141074  0.51658207     1.65800
Fe68       Fe  0.47623106  0.10981232  0.54394017     1.73200
Fe69       Fe  0.48864886  0.15035920  0.48056387     1.54400
O70         O  0.46795128  0.14646082  0.43286980    -0.81800
O71         O  0.49955720  0.13414757  0.57503601    -0.80100
O72         O  0.43774222  0.11987935  0.45098465    -0.84300
O73         O  0.44864809  0.15246879  0.51704773    -0.79100
O74         O  0.49611892  0.13197541  0.44596780    -0.80900
O75         O  0.45791984  0.10630360  0.59619985    -0.83700
C76         C  0.46558966  0.16934169  0.51877424     0.97100
C77         C  0.44994178  0.13234174  0.42345859     1.04500
O78         O  0.46831957  0.12726299  0.51382697    -1.12600
O79         O  0.45368583  0.08418644  0.51491470    -0.75100
O80         O  0.42730668  0.08946810  0.51709926    -0.78600
O81         O  0.48267425  0.17051956  0.51200974    -0.79200
C82         C  0.43471471  0.07773795  0.51204328     0.96000
O83         O  0.44094893  0.12262475  0.58211840    -0.77200
O84         O  0.49594169  0.11114918  0.49615749    -0.82400
C85         C  0.51410209  0.15030107  0.55907415     0.98600
C86         C  0.50071690  0.11890777  0.45905561     1.04600
O87         O  0.51246645  0.15722209  0.52322818    -0.78000
C88         C  0.44760565  0.11448453  0.60825611     1.02900
Fe89       Fe  0.67320894  0.11952652  0.22935512     1.65800
Fe90       Fe  0.62536013  0.10807094  0.19844504     1.73200
Fe91       Fe  0.65405912  0.14968412  0.26069514     1.54400
O92         O  0.66850575  0.14470502  0.31160925    -0.81800
O93         O  0.62502728  0.13218929  0.16886294    -0.80100
O94         O  0.67336444  0.11878123  0.29502894    -0.84300
O95         O  0.69634755  0.15026467  0.22813635    -0.79100
O96         O  0.62699765  0.13274207  0.29244840    -0.80900
O97         O  0.64116072  0.10638178  0.14601952    -0.83700
C98         C  0.69704030  0.16742364  0.22593771     0.97100
C99         C  0.67257618  0.13086927  0.32205257     1.04500
O100        O  0.65082006  0.12575609  0.22934113    -1.12600
O101        O  0.62235323  0.08165830  0.22389906    -0.75100
O102        O  0.65415338  0.08782187  0.23018622    -0.78600
O103        O  0.68136911  0.16906513  0.23189973    -0.79200
C104        C  0.63496906  0.07555098  0.23030453     0.96000
O105        O  0.67403956  0.11957725  0.16376047    -0.77200
O106        O  0.60666170  0.10807767  0.24737462    -0.82400
C107        C  0.62943215  0.14989574  0.18128658     0.98600
C108        C  0.60957908  0.11799080  0.28199164     1.04600
O109        O  0.63955290  0.15786890  0.21513024    -0.78000
C110        C  0.65976024  0.11273626  0.13619764     1.02900
Fe111      Fe  0.67499720  0.11889341  0.72995389     1.65800
Fe112      Fe  0.62665223  0.10656903  0.70242949     1.73200
Fe113      Fe  0.65500849  0.14752340  0.76588078     1.54400
O114        O  0.67140391  0.14351369  0.81388100    -0.81800
O115        O  0.62650240  0.13072854  0.67281667    -0.80100
O116        O  0.67656853  0.11801852  0.79568343    -0.84300
O117        O  0.69728860  0.14987263  0.72850449    -0.79100
O118        O  0.62884063  0.12913587  0.79970282    -0.80900
O119        O  0.64155724  0.10400939  0.64935445    -0.83700
C120        C  0.69745098  0.16680853  0.72797263     0.97100
C121        C  0.67625318  0.13013372  0.82331166     1.04500
O122        O  0.65224070  0.12438399  0.73257008    -1.12600
O123        O  0.62413335  0.08077557  0.72989145    -0.75100
O124        O  0.65619283  0.08704992  0.73096655    -0.78600
O125        O  0.68160581  0.16802143  0.73549149    -0.79200
C126        C  0.63704530  0.07494525  0.73496089     0.96000
O127        O  0.67487482  0.11947166  0.66428007    -0.77200
O128        O  0.60822061  0.10708637  0.75083273    -0.82400
C129        C  0.62865203  0.14712491  0.68873962     0.98600
C130        C  0.61117381  0.11563590  0.78704921     1.04600
O131        O  0.63826214  0.15452048  0.72341102    -0.78000
C132        C  0.66010627  0.11162390  0.63789474     1.02900
Fe133      Fe  0.55694740  0.87933540  0.28175185     1.65800
Fe134      Fe  0.52011434  0.88988948  0.31400138     1.73200
Fe135      Fe  0.50748884  0.85013121  0.24659814     1.54400
O136        O  0.52718975  0.85624516  0.19660178    -0.81800
O137        O  0.49491345  0.86511839  0.33973208    -0.80100
O138        O  0.55855340  0.88021595  0.21603739    -0.84300
O139        O  0.54862395  0.84843900  0.28317553    -0.79100
O140        O  0.49794556  0.86822369  0.21697611    -0.80900
O141        O  0.53643413  0.88990445  0.36679157    -0.83700
C142        C  0.53204318  0.83125164  0.28163324     0.97100
C143        C  0.54560790  0.86926470  0.18780407     1.04500
O144        O  0.52818543  0.87310507  0.28091999    -1.12600
O145        O  0.54411819  0.91683599  0.29271718    -0.75100
O146        O  0.56974474  0.91117798  0.28029269    -0.78600
O147        O  0.51500272  0.82980021  0.27253087    -0.79200
C148        C  0.56266776  0.92322531  0.28386228     0.96000
O149        O  0.55792061  0.87926332  0.34778617    -0.77200
O150        O  0.50264042  0.89181297  0.26508559    -0.82400
C151        C  0.48161296  0.84784319  0.32517698     0.98600
C152        C  0.49579719  0.88301868  0.22943544     1.04600
O153        O  0.48417938  0.84065968  0.29079083    -0.78000
C154        C  0.54960338  0.88475238  0.37599856     1.02900
Fe155      Fe  0.55598710  0.87859827  0.78138372     1.65800
Fe156      Fe  0.52009217  0.89084247  0.80942494     1.73200
Fe157      Fe  0.50729324  0.85057369  0.74417849     1.54400
O158        O  0.52791324  0.85484782  0.69619933    -0.81800
O159        O  0.49558402  0.86651202  0.83770298    -0.80100
O160        O  0.55863561  0.88006422  0.71602250    -0.84300
O161        O  0.54676710  0.84740629  0.78172606    -0.79100
O162        O  0.50019102  0.86952960  0.71105337    -0.80900
O163        O  0.53718045  0.89250903  0.86265736    -0.83700
C164        C  0.52972563  0.83061032  0.78179952     0.97100
C165        C  0.54636569  0.86815271  0.68784426     1.04500
O166        O  0.52778435  0.87331374  0.77848254    -1.12600
O167        O  0.54364786  0.91679385  0.78405006    -0.75100
O168        O  0.56942547  0.91057782  0.78177848    -0.78600
O169        O  0.51287088  0.82982860  0.77430839    -0.79200
C170        C  0.56241009  0.92273926  0.77922022     0.96000
O171        O  0.55530320  0.87756770  0.84667843    -0.77200
O172        O  0.50189795  0.89148121  0.76021180    -0.82400
C173        C  0.48142142  0.85000899  0.82195313     0.98600
C174        C  0.49692387  0.88362008  0.72320681     1.04600
O175        O  0.48332881  0.84308372  0.78644722    -0.78000
C176        C  0.54837710  0.88509707  0.87345744     1.02900
Fe177      Fe  0.68149124  0.56314928  0.35321365     1.65800
Fe178      Fe  0.63448459  0.52668879  0.38721932     1.73200
Fe179      Fe  0.66088565  0.51427844  0.31908703     1.54400
O180        O  0.67717404  0.53488606  0.27080894    -0.81800
O181        O  0.63505358  0.50224730  0.41451319    -0.80100
O182        O  0.67997903  0.56470684  0.28805586    -0.84300
O183        O  0.70371139  0.55455614  0.34909976    -0.79100
O184        O  0.63440111  0.50691030  0.28704013    -0.80900
O185        O  0.65150508  0.54420410  0.43858989    -0.83700
C186        C  0.70364984  0.53772700  0.35280260     0.97100
C187        C  0.68039917  0.55257937  0.26074549     1.04500
O188        O  0.65884981  0.53473361  0.35331254    -1.12600
O189        O  0.63100151  0.55021323  0.36486488    -0.75100
O190        O  0.66289811  0.57611344  0.35749433    -0.78600
O191        O  0.68738608  0.52046447  0.34962284    -0.79200
C192        C  0.64375372  0.56908661  0.36005156     0.96000
O193        O  0.68411118  0.56330654  0.41859082    -0.77200
O194        O  0.61493123  0.50804572  0.33899635    -0.82400
C195        C  0.63614840  0.48777918  0.39684903     0.98600
C196        C  0.61708689  0.50273829  0.30170416     1.04600
O197        O  0.64439413  0.48994967  0.36065378    -0.78000
C198        C  0.67036279  0.55617208  0.44712112     1.02900
Fe199      Fe  0.68145211  0.56286109  0.85292156     1.65800
Fe200      Fe  0.63482607  0.52619233  0.88753360     1.73200
Fe201      Fe  0.66076733  0.51406569  0.81811057     1.54400
O202        O  0.67635892  0.53469246  0.76935465    -0.81800
O203        O  0.63724232  0.50310019  0.91610173    -0.80100
O204        O  0.68006543  0.56480934  0.78770338    -0.84300
O205        O  0.70385226  0.55446737  0.84768631    -0.79100
O206        O  0.63390032  0.50656237  0.78765646    -0.80900
O207        O  0.65158280  0.54492221  0.93755312    -0.83700
C208        C  0.70394977  0.53764595  0.84968853     0.97100
C209        C  0.68038088  0.55274460  0.76003328     1.04500
O210        O  0.65899635  0.53443737  0.85287446    -1.12600
O211        O  0.63037852  0.54864509  0.86287727    -0.75100
O212        O  0.66217841  0.57517399  0.85819170    -0.78600
O213        O  0.68773580  0.52035976  0.84647740    -0.79200
C214        C  0.64288235  0.56766343  0.85960283     0.96000
O215        O  0.68431648  0.56281664  0.91833325    -0.77200
O216        O  0.61477049  0.50613710  0.84170422    -0.82400
C217        C  0.63789063  0.48840988  0.89831310     0.98600
C218        C  0.61659476  0.50140551  0.80374724     1.04600
O219        O  0.64498854  0.49005726  0.86098521    -0.78000
C220        C  0.67042400  0.55641898  0.94650215     1.02900
Fe221      Fe  0.44804408  0.32849349  0.06981093     1.65800
Fe222      Fe  0.48562249  0.37533208  0.03757604     1.73200
Fe223      Fe  0.49661015  0.34708849  0.10456483     1.54400
O224        O  0.47587758  0.33112905  0.15260498    -0.81800
O225        O  0.50930006  0.37367863  0.01003214    -0.80100
O226        O  0.44633679  0.32897533  0.13536138    -0.84300
O227        O  0.45533087  0.30539303  0.07178081    -0.79100
O228        O  0.50513796  0.37373829  0.13729743    -0.80900
O229        O  0.46783382  0.35950427  0.98551134    -0.83700
C230        C  0.47168589  0.30463019  0.06832682     0.97100
C231        C  0.45827059  0.32800279  0.16257890     1.04500
O232        O  0.47673560  0.35039823  0.07058001    -1.12600
O233        O  0.46283716  0.37980032  0.06043160    -0.75100
O234        O  0.43639784  0.34815772  0.06702988    -0.78600
O235        O  0.48927145  0.32029599  0.07367762    -0.79200
C236        C  0.44389102  0.36741389  0.06515733     0.96000
O237        O  0.44787736  0.32678740  0.00426679    -0.77200
O238        O  0.50456424  0.39401004  0.08632171    -0.82400
C239        C  0.52338893  0.37176757  0.02730622     0.98600
C240        C  0.50958306  0.39133309  0.12352761     1.04600
O241        O  0.52098964  0.36307096  0.06310637    -0.78000
C242        C  0.45524216  0.34088849  0.97637169     1.02900
Fe243      Fe  0.44668379  0.32736044  0.57030630     1.65800
Fe244      Fe  0.48334805  0.37517995  0.54034590     1.73200
Fe245      Fe  0.49532116  0.34751980  0.60708155     1.54400
O246        O  0.47456579  0.33190789  0.65510810    -0.81800
O247        O  0.50781150  0.37487165  0.51333953    -0.80100
O248        O  0.44411786  0.32708967  0.63579877    -0.84300
O249        O  0.45497166  0.30489946  0.57222767    -0.79100
O250        O  0.50338454  0.37419212  0.63923451    -0.80900
O251        O  0.46633224  0.35933442  0.48748395    -0.83700
C252        C  0.47162576  0.30454730  0.57141735     0.97100
C253        C  0.45637280  0.32737698  0.66388110     1.04500
O254        O  0.47511950  0.35006870  0.57249751    -1.12600
O255        O  0.45976201  0.37826715  0.56325960    -0.75100
O256        O  0.43395337  0.34617130  0.56805890    -0.78600
O257        O  0.48882392  0.32052813  0.57790180    -0.79200
C258        C  0.44093053  0.36537116  0.56760866     0.96000
O259        O  0.44731041  0.32629837  0.50453983    -0.77200
O260        O  0.50162849  0.39420578  0.58935470    -0.82400
C261        C  0.52176837  0.37237606  0.52950060     0.98600
C262        C  0.50706862  0.39162753  0.62615007     1.04600
O263        O  0.51950065  0.36337955  0.56493846    -0.78000
C264        C  0.45458857  0.34068169  0.47722275     1.02900
Fe265      Fe  0.55445009  0.67531996  0.33315188     1.65800
Fe266      Fe  0.51881643  0.62790786  0.30237173     1.73200
Fe267      Fe  0.50574502  0.65467035  0.36792247     1.54400
O268        O  0.52630437  0.67037575  0.41696459    -0.81800
O269        O  0.49547611  0.62895515  0.27148435    -0.80100
O270        O  0.55626338  0.67375695  0.39819062    -0.84300
O271        O  0.54604606  0.69766460  0.33719586    -0.79100
O272        O  0.49790082  0.62810857  0.40009850    -0.80900
O273        O  0.53773332  0.64407255  0.25176589    -0.83700
C274        C  0.52926329  0.69771028  0.33476163     0.97100
C275        C  0.54390436  0.67307383  0.42624667     1.04500
O276        O  0.52623000  0.65266596  0.33420971    -1.12600
O277        O  0.54139707  0.62485085  0.33125994    -0.75100
O278        O  0.56742732  0.65669781  0.32876880    -0.78600
O279        O  0.51203553  0.68152685  0.33883348    -0.79200
C280        C  0.56038013  0.63758485  0.33344562     0.96000
O281        O  0.55360718  0.67726822  0.26793096    -0.77200
O282        O  0.49853930  0.60842692  0.34824843    -0.82400
C283        C  0.48080217  0.63025699  0.28745728     0.98600
C284        C  0.49305753  0.61067368  0.38512840     1.04600
O285        O  0.48224029  0.63843336  0.32375272    -0.78000
C286        C  0.54780165  0.66286601  0.24094856     1.02900
Fe287      Fe  0.55481166  0.67574283  0.83290703     1.65800
Fe288      Fe  0.51838536  0.62759788  0.80642448     1.73200
Fe289      Fe  0.50631347  0.65617683  0.86911197     1.54400
O290        O  0.52713245  0.67344607  0.91629697    -0.81800
O291        O  0.49438743  0.62784120  0.77624158    -0.80100
O292        O  0.55708237  0.67677295  0.89837369    -0.84300
O293        O  0.54631991  0.69814848  0.83164892    -0.79100
O294        O  0.49882725  0.63048425  0.90462945    -0.80900
O295        O  0.53614265  0.64208643  0.75372180    -0.83700
C296        C  0.52947003  0.69811302  0.82944397     0.97100
C297        C  0.54491291  0.67686422  0.92597511     1.04500
O298        O  0.52648616  0.65319442  0.83591507    -1.12600
O299        O  0.54142414  0.62484617  0.83409738    -0.75100
O300        O  0.56749000  0.65678519  0.83366406    -0.78600
O301        O  0.51234655  0.68208659  0.83617899    -0.79200
C302        C  0.56036686  0.63762241  0.83767059     0.96000
O303        O  0.55420041  0.67553859  0.76721319    -0.77200
O304        O  0.49937215  0.60975625  0.85508783    -0.82400
C305        C  0.47992605  0.62935546  0.79273009     0.98600
C306        C  0.49425906  0.61277156  0.89166427     1.04600
O307        O  0.48209026  0.63863377  0.82778667    -0.78000
C308        C  0.54741195  0.66050487  0.74153528     1.02900
Fe309      Fe  0.32190039  0.43876954  0.11542853     1.65800
Fe310      Fe  0.36784626  0.47695775  0.15037043     1.73200
Fe311      Fe  0.33960408  0.48760370  0.08354614     1.54400
O312        O  0.32463042  0.46738754  0.03364827    -0.81800
O313        O  0.36451579  0.49914136  0.18071559    -0.80100
O314        O  0.32293780  0.43799769  0.04991165    -0.84300
O315        O  0.29806259  0.44531651  0.11457641    -0.79100
O316        O  0.36646516  0.49692068  0.05179663    -0.80900
O317        O  0.35232560  0.45751058  0.20061394    -0.83700
C318        C  0.29694948  0.46154713  0.11834306     0.97100
C319        C  0.32263659  0.45025977  0.02272817     1.04500
O320        O  0.34309590  0.46774686  0.11668294    -1.12600
O321        O  0.37351735  0.45590828  0.12275277    -0.75100
O322        O  0.34274107  0.42826347  0.11584402    -0.78600
O323        O  0.31248000  0.47928707  0.11361402    -0.79200
C324        C  0.36217154  0.43703095  0.11468293     0.96000
O325        O  0.31977835  0.43765681  0.18090354    -0.77200
O326        O  0.38661765  0.49778525  0.10446529    -0.82400
C327        C  0.36313638  0.51355605  0.16345921     0.98600
C328        C  0.38408758  0.50256620  0.06700127     1.04600
O329        O  0.35504513  0.51154830  0.12692144    -0.78000
C330        C  0.33368848  0.44492497  0.20922411     1.02900
Fe331      Fe  0.32011586  0.43863771  0.61418496     1.65800
Fe332      Fe  0.36659802  0.47637155  0.64598553     1.73200
Fe333      Fe  0.33742063  0.48751541  0.58323541     1.54400
O334        O  0.32149521  0.46711045  0.53398647    -0.81800
O335        O  0.36375647  0.49834238  0.67798098    -0.80100
O336        O  0.32072421  0.43792438  0.54867392    -0.84300
O337        O  0.29636447  0.44522148  0.61288025    -0.79100
O338        O  0.36366290  0.49688714  0.54909738    -0.80900
O339        O  0.35172967  0.45679524  0.69665132    -0.83700
C340        C  0.29528397  0.46137964  0.61813686     0.97100
C341        C  0.31937310  0.44999404  0.52240027     1.04500
O342        O  0.34140170  0.46750709  0.61456601    -1.12600
O343        O  0.37163117  0.45525682  0.61684950    -0.75100
O344        O  0.34064322  0.42770114  0.61512399    -0.78600
O345        O  0.31084717  0.47919514  0.61554971    -0.79200
C346        C  0.36000416  0.43614607  0.61231980     0.96000
O347        O  0.31864671  0.43803068  0.67985887    -0.77200
O348        O  0.38469549  0.49721046  0.59919617    -0.82400
C349        C  0.36215814  0.51295238  0.66252629     0.98600
C350        C  0.38150374  0.50215098  0.56238690     1.04600
O351        O  0.35362138  0.51140016  0.62666617    -0.78000
C352        C  0.33313576  0.44485546  0.70695639     1.02900
Fe353      Fe  0.11711085  0.44156069  0.14550222     1.65800
Fe354      Fe  0.10955793  0.48015972  0.11396064     1.73200
Fe355      Fe  0.15002770  0.49022918  0.17658149     1.54400
O356        O  0.14442753  0.46963434  0.22606210    -0.81800
O357        O  0.13466343  0.50335792  0.08404357    -0.80100
O358        O  0.11537094  0.44091996  0.21090790    -0.84300
O359        O  0.14710727  0.44713250  0.14858187    -0.79100
O360        O  0.13402022  0.50085847  0.21030055    -0.80900
O361        O  0.10610149  0.46160401  0.06206420    -0.83700
C362        C  0.16474383  0.46283036  0.14373220     0.97100
C363        C  0.12899829  0.45270598  0.23732174     1.04500
O364        O  0.12554732  0.47072354  0.14514512    -1.12600
O365        O  0.08246043  0.45831000  0.13984051    -0.75100
O366        O  0.08563625  0.43076278  0.14264641    -0.78600
O367        O  0.16771227  0.48091029  0.14479745    -0.79200
C368        C  0.07465672  0.43912837  0.14315480     0.96000
O369        O  0.11842213  0.44117506  0.07995246    -0.77200
O370        O  0.11149878  0.49972742  0.16282704    -0.82400
C371        C  0.15193502  0.51673861  0.09847418     0.98600
C372        C  0.12054105  0.50522978  0.19876247     1.04600
O373        O  0.15907480  0.51416755  0.13312624    -0.78000
C374        C  0.11186907  0.44888378  0.05237646     1.02900
Fe375      Fe  0.11597568  0.44107588  0.64442318     1.65800
Fe376      Fe  0.10764021  0.47914445  0.61321550     1.73200
Fe377      Fe  0.14749252  0.48968054  0.67757725     1.54400
O378        O  0.14187373  0.46902851  0.72683778    -0.81800
O379        O  0.13277418  0.50169915  0.58278348    -0.80100
O380        O  0.11376384  0.43979628  0.70983169    -0.84300
O381        O  0.14622656  0.44742010  0.64717042    -0.79100
O382        O  0.13070592  0.49953774  0.71053243    -0.80900
O383        O  0.10381989  0.46021154  0.56195120    -0.83700
C384        C  0.16368048  0.46352592  0.64338249     0.97100
C385        C  0.12660602  0.45178894  0.73717587     1.04500
O386        O  0.12367800  0.46999337  0.64499354    -1.12600
O387        O  0.08091113  0.45751629  0.64022709    -0.75100
O388        O  0.08453749  0.43010335  0.64162341    -0.78600
O389        O  0.16604361  0.48130993  0.64678709    -0.79200
C390        C  0.07347219  0.43836177  0.64331306     0.96000
O391        O  0.11768106  0.44112192  0.57879933    -0.77200
O392        O  0.10978658  0.49950834  0.66055159    -0.82400
C393        C  0.14944895  0.51564684  0.59838682     0.98600
C394        C  0.11814332  0.50477079  0.69714247     1.04600
O395        O  0.15616725  0.51351244  0.63403732    -0.78000
C396        C  0.11048774  0.44833847  0.55155065     1.02900
Fe397      Fe  0.12361818  0.67846123  0.43241325     1.65800
Fe398      Fe  0.11382009  0.63151146  0.46474549     1.73200
Fe399      Fe  0.15219103  0.65859563  0.39556320     1.54400
O400        O  0.14782467  0.67500326  0.34801223    -0.81800
O401        O  0.13944268  0.63318503  0.49178806    -0.80100
O402        O  0.12158510  0.67869177  0.36701826    -0.84300
O403        O  0.15453189  0.70082427  0.43172422    -0.79100
O404        O  0.13288748  0.63200315  0.36348022    -0.80900
O405        O  0.11227079  0.64748808  0.51684397    -0.83700
C406        C  0.17147530  0.70100345  0.43306692     0.97100
C407        C  0.13395673  0.67920199  0.33924583     1.04500
O408        O  0.12980486  0.65618187  0.43101515    -1.12600
O409        O  0.08661766  0.62740732  0.44133859    -0.75100
O410        O  0.09188860  0.65898468  0.43353499    -0.78600
O411        O  0.17279166  0.68518336  0.42561153    -0.79200
C412        C  0.08001058  0.63965115  0.43467866     0.96000
O413        O  0.12498095  0.68007863  0.49801028    -0.77200
O414        O  0.11364894  0.61233402  0.41683380    -0.82400
C415        C  0.15464024  0.63406577  0.47286557     0.98600
C416        C  0.12064809  0.61452225  0.37916041     1.04600
O417        O  0.16020947  0.64211756  0.43634451    -0.78000
C418        C  0.11840898  0.66609709  0.52604537     1.02900
Fe419      Fe  0.12372314  0.67846586  0.93354208     1.65800
Fe420      Fe  0.11379075  0.63130781  0.96481535     1.73200
Fe421      Fe  0.15248649  0.65877155  0.89648106     1.54400
O422        O  0.14712960  0.67434141  0.84843555    -0.81800
O423        O  0.13906608  0.63244428  0.99179633    -0.80100
O424        O  0.12104087  0.67819498  0.86819507    -0.84300
O425        O  0.15451287  0.70115890  0.93113604    -0.79100
O426        O  0.13348927  0.63198331  0.86489048    -0.80900
O427        O  0.11262995  0.64737275  0.01697429    -0.83700
C428        C  0.17164910  0.70174278  0.93134780     0.97100
C429        C  0.13291933  0.67812283  0.83986926     1.04500
O430        O  0.13001825  0.65620203  0.93182992    -1.12600
O431        O  0.08678737  0.62746429  0.94162856    -0.75100
O432        O  0.09204188  0.65909120  0.93613634    -0.78600
O433        O  0.17311388  0.68591388  0.92508435    -0.79200
C434        C  0.08018601  0.63977251  0.93676391     0.96000
O435        O  0.12565109  0.68014834  0.99920981    -0.77200
O436        O  0.11312105  0.61206754  0.91659056    -0.82400
C437        C  0.15492693  0.63423093  0.97425068     0.98600
C438        C  0.12043330  0.61449838  0.87921029     1.04600
O439        O  0.16106800  0.64283969  0.93823359    -0.78000
C440        C  0.11897040  0.66594156  0.02685434     1.02900
Fe441      Fe  0.88337293  0.55970481  0.39101488     1.65800
Fe442      Fe  0.89228774  0.52188698  0.35966327     1.73200
Fe443      Fe  0.85294574  0.51108003  0.42555593     1.54400
O444        O  0.85847296  0.53184374  0.47414042    -0.81800
O445        O  0.86696701  0.49809568  0.33143807    -0.80100
O446        O  0.88580787  0.56151691  0.45633557    -0.84300
O447        O  0.85273564  0.55250764  0.39375301    -0.79100
O448        O  0.87075196  0.50220203  0.45786506    -0.80900
O449        O  0.89415085  0.53948391  0.30770368    -0.83700
C450        C  0.83542946  0.53605874  0.39133472     0.97100
C451        C  0.87318540  0.54951906  0.48380842     1.04500
O452        O  0.87625514  0.53088729  0.39197764    -1.12600
O453        O  0.91941676  0.54458094  0.38378261    -0.75100
O454        O  0.91514473  0.57150849  0.38845718    -0.78600
O455        O  0.83355984  0.51851648  0.39544349    -0.79200
C456        C  0.92660260  0.56362817  0.38840026     0.96000
O457        O  0.88130725  0.55933603  0.32549058    -0.77200
O458        O  0.89210612  0.50306091  0.40818693    -0.82400
C459        C  0.85016136  0.48455953  0.34721528     0.98600
C460        C  0.88418307  0.49809657  0.44508151     1.04600
O461        O  0.84387193  0.48702927  0.38287584    -0.78000
C462        C  0.88755498  0.55148263  0.29782379     1.02900
Fe463      Fe  0.88428173  0.56115326  0.89107765     1.65800
Fe464      Fe  0.89367095  0.52322929  0.86281378     1.73200
Fe465      Fe  0.85314366  0.51246908  0.92536333     1.54400
O466        O  0.85784173  0.53328421  0.97326314    -0.81800
O467        O  0.86893380  0.49896491  0.83456920    -0.80100
O468        O  0.88543951  0.56290573  0.95628787    -0.84300
O469        O  0.85369594  0.55400540  0.88989762    -0.79100
O470        O  0.87023964  0.50340188  0.96024478    -0.80900
O471        O  0.89573431  0.54020645  0.80907310    -0.83700
C472        C  0.83649080  0.53754368  0.88617376     0.97100
C473        C  0.87261558  0.55084025  0.98330346     1.04500
O474        O  0.87709422  0.53227130  0.89296043    -1.12600
O475        O  0.92051319  0.54628688  0.88702754    -0.75100
O476        O  0.91591766  0.57299621  0.89203617    -0.78600
O477        O  0.83442605  0.52002621  0.89247878    -0.79200
C478        C  0.92743107  0.56523065  0.89264907     0.96000
O479        O  0.88377333  0.56097998  0.82558876    -0.77200
O480        O  0.89309201  0.50501789  0.91342170    -0.82400
C481        C  0.85190157  0.48545351  0.84942790     0.98600
C482        C  0.88421675  0.49967394  0.94946873     1.04600
O483        O  0.84471530  0.48817330  0.88362307    -0.78000
C484        C  0.88973801  0.55264460  0.79847666     1.02900
Fe485      Fe  0.87691639  0.32399932  0.17535670     1.65800
Fe486      Fe  0.88749554  0.37104138  0.21142740     1.73200
Fe487      Fe  0.84849266  0.34498129  0.14123701     1.54400
O488        O  0.85456290  0.33164726  0.09047494    -0.81800
O489        O  0.86255210  0.37115775  0.23675532    -0.80100
O490        O  0.87836976  0.32421144  0.10990104    -0.84300
O491        O  0.84598167  0.30147356  0.17527162    -0.79100
O492        O  0.86735029  0.37295859  0.11346844    -0.80900
O493        O  0.88679476  0.35371800  0.26293614    -0.83700
C494        C  0.82889419  0.30097592  0.17372670     0.97100
C495        C  0.86764320  0.32640827  0.08161062     1.04500
O496        O  0.87096788  0.34667316  0.17616128    -1.12600
O497        O  0.91467027  0.37431795  0.19099964    -0.75100
O498        O  0.90872589  0.34312475  0.17517337    -0.78600
O499        O  0.82763049  0.31678324  0.16568284    -0.79200
C500        C  0.92089690  0.36221738  0.18037367     0.96000
O501        O  0.87617403  0.32183971  0.24091599    -0.77200
O502        O  0.89002585  0.39135412  0.16388858    -0.82400
C503        C  0.84586713  0.36811495  0.22069181     0.98600
C504        C  0.88190132  0.38978063  0.12752355     1.04600
O505        O  0.83909647  0.35880943  0.18560942    -0.78000
C506        C  0.88129550  0.33509279  0.27026283     1.02900
Fe507      Fe  0.87729325  0.32406469  0.67557730     1.65800
Fe508      Fe  0.88708298  0.37116344  0.70669780     1.73200
Fe509      Fe  0.84790850  0.34309491  0.63975200     1.54400
O510        O  0.85225303  0.32672954  0.59201210    -0.81800
O511        O  0.86177260  0.36898461  0.73548881    -0.80100
O512        O  0.87895299  0.32361259  0.61028635    -0.84300
O513        O  0.84631162  0.30099468  0.67507606    -0.79100
O514        O  0.86660502  0.36943311  0.60667905    -0.80900
O515        O  0.89018188  0.35598929  0.75848741    -0.83700
C516        C  0.82920748  0.30055689  0.67660390     0.97100
C517        C  0.86635690  0.32293630  0.58271617     1.04500
O518        O  0.87081581  0.34609323  0.67413832    -1.12600
O519        O  0.91380223  0.37565459  0.68142447    -0.75100
O520        O  0.90900888  0.34411912  0.67646328    -0.78600
O521        O  0.82792555  0.31650221  0.67056206    -0.79200
C522        C  0.92059870  0.36352602  0.67657981     0.96000
O523        O  0.87639177  0.32306339  0.74097005    -0.77200
O524        O  0.88629665  0.38977846  0.65879974    -0.82400
C525        C  0.84613072  0.36771635  0.71770717     0.98600
C526        C  0.87937619  0.38705485  0.62091692     1.04600
O527        O  0.84008910  0.35958951  0.68124155    -0.78000
C528        C  0.88378465  0.33740692  0.76825416     1.02900
C529        C  0.86920788  0.31001663  0.87438111    -0.27700
C530        C  0.88205700  0.32589630  0.90204161     0.01900
C531        C  0.89722168  0.34470393  0.88519425     0.30000
C532        C  0.89833789  0.34791570  0.84123452    -0.19500
C533        C  0.88450531  0.33248746  0.81355203    -0.28900
C534        C  0.87043281  0.31311075  0.83039741     0.44000
C535        C  0.87771576  0.32367570  0.94807073     0.05200
O536        O  0.91028810  0.36037995  0.91152161    -0.57400
H537        H  0.90956821  0.36278663  0.82892734     0.18100
O538        O  0.85668668  0.29760824  0.80462558    -0.64100
H539        H  0.85755934  0.29543930  0.88710660     0.16600
C540        C  0.85897673  0.32091607  0.96290405     0.28800
C541        C  0.85560794  0.32091021  0.00650676    -0.25000
C542        C  0.87071308  0.32356751  0.03614942    -0.24300
C543        C  0.88918185  0.32545048  0.02118001     0.40300
C544        C  0.89262359  0.32567402  0.97735805    -0.26800
O545        O  0.84444015  0.31969943  0.93491144    -0.58700
H546        H  0.84129574  0.31943031  0.01703853     0.15900
O547        O  0.90449377  0.32842104  0.04881714    -0.60100
H548        H  0.90712997  0.32786844  0.96617127     0.14400
H549        H  0.86317476  0.28933738  0.79796939     0.46200
H550        H  0.83422890  0.30488900  0.93268305     0.41600
H551        H  0.90227621  0.31453605  0.05455352     0.45100
H552        H  0.90309562  0.36795360  0.91836737     0.36500
C553        C  0.86497415  0.30447589  0.37319622    -0.27700
C554        C  0.87692953  0.31976166  0.40294726     0.01900
C555        C  0.89138639  0.33944215  0.38842560     0.30000
C556        C  0.89321356  0.34383621  0.34501919    -0.19500
C557        C  0.88067825  0.32889537  0.31519167    -0.28900
C558        C  0.86684445  0.30886920  0.32950395     0.44000
C559        C  0.87299456  0.31607829  0.44913573     0.05200
O560        O  0.90314361  0.35482393  0.41660477    -0.57400
H561        H  0.90410037  0.35925543  0.33478739     0.18100
O562        O  0.85408536  0.29390345  0.30153294    -0.64100
H563        H  0.85375618  0.28927865  0.38397316     0.16600
C564        C  0.85388874  0.31130624  0.46595843     0.28800
C565        C  0.85166260  0.31246219  0.50983086    -0.25000
C566        C  0.86828637  0.31827822  0.53770184    -0.24300
C567        C  0.88701248  0.32154361  0.52098763     0.40300
C568        C  0.88919297  0.32035018  0.47702442    -0.26800
O569        O  0.83784055  0.30737389  0.43954772    -0.58700
H570        H  0.83706440  0.30967333  0.52182901     0.15900
O571        O  0.90364137  0.32708255  0.54685226    -0.60100
H572        H  0.90394626  0.32392130  0.46442651     0.14400
H573        H  0.86115161  0.28621363  0.29460565     0.46200
H574        H  0.82921761  0.29223260  0.43875259     0.41600
H575        H  0.91124149  0.34227512  0.54696176     0.45100
H576        H  0.89474361  0.36104001  0.42430939     0.36500
C577        C  0.88905355  0.42446779  0.03379546    -0.27700
C578        C  0.89568375  0.44330179  0.05424503     0.01900
C579        C  0.90021096  0.44495700  0.09809954     0.30000
C580        C  0.89680516  0.42765000  0.12123277    -0.19500
C581        C  0.88880817  0.40845623  0.10127564    -0.28900
C582        C  0.88561856  0.40715969  0.05684576     0.44000
C583        C  0.89574122  0.46030156  0.03024746     0.05200
O584        O  0.90726622  0.46324260  0.11896305    -0.57400
H585        H  0.89950167  0.42908063  0.15526594     0.18100
O586        O  0.87904954  0.38901994  0.03563080    -0.64100
H587        H  0.88555443  0.42287901  0.00007571     0.16600
C588        C  0.90522310  0.46650987  0.99021790     0.28800
C589        C  0.90210223  0.48002349  0.96505339    -0.25000
C590        C  0.88967433  0.48777853  0.97925252    -0.24300
C591        C  0.88140228  0.48264765  0.02076044     0.40300
C592        C  0.88440761  0.46898814  0.04564794    -0.26800
O593        O  0.91709623  0.45897867  0.97482133    -0.58700
H594        H  0.90891515  0.48386882  0.93369605     0.15900
O595        O  0.87016037  0.49067669  0.03731872    -0.60100
H596        H  0.87703279  0.46446315  0.07641845     0.14400
H597        H  0.86425209  0.38349695  0.03030748     0.46200
H598        H  0.93068178  0.46747553  0.98836237     0.41600
H599        H  0.85565597  0.47978066  0.03387192     0.45100
H600        H  0.92220196  0.47099602  0.11351255     0.36500
C601        C  0.82253202  0.42803460  0.83086841    -0.27700
C602        C  0.82994554  0.42690161  0.79063232     0.01900
C603        C  0.84155426  0.44513344  0.76728684     0.30000
C604        C  0.84680076  0.46403610  0.78541086    -0.19500
C605        C  0.84116161  0.46535565  0.82732998    -0.28900
C606        C  0.82819759  0.44704686  0.84946942     0.44000
C607        C  0.82826512  0.40742820  0.77555526     0.05200
O608        O  0.84922901  0.44484587  0.72794733    -0.57400
H609        H  0.85658639  0.47782682  0.76753365     0.18100
O610        O  0.82216270  0.44750299  0.89037370    -0.64100
H611        H  0.81331291  0.41418652  0.84901288     0.16600
C612        C  0.83572480  0.39714598  0.80084925     0.28800
C613        C  0.83958660  0.38256886  0.78243088    -0.25000
C614        C  0.83602795  0.37785782  0.73886964    -0.24300
C615        C  0.82623320  0.38631955  0.71491767     0.40300
C616        C  0.82244495  0.40097526  0.73335138    -0.26800
O617        O  0.84149416  0.40285008  0.84230087    -0.58700
H618        H  0.84680708  0.37605103  0.80169414     0.15900
O619        O  0.82240793  0.38219937  0.67231980    -0.60100
H620        H  0.81628757  0.40840188  0.71366944     0.14400
H621        H  0.83263602  0.44710113  0.90879104     0.46200
H622        H  0.83023456  0.39219144  0.85967248     0.41600
H623        H  0.80767511  0.37175303  0.67041509     0.45100
H624        H  0.86251435  0.44562895  0.73360892     0.36500
C625        C  0.89785661  0.57197521  0.59043672    -0.27700
C626        C  0.88129307  0.56102829  0.61795519     0.01900
C627        C  0.86164952  0.54839171  0.60091841     0.30000
C628        C  0.85900935  0.54576824  0.55686468    -0.19500
C629        C  0.87580444  0.55566412  0.52917895    -0.28900
C630        C  0.89522435  0.56954817  0.54629757     0.44000
C631        C  0.88500245  0.56078617  0.66404336     0.05200
O632        O  0.84514100  0.53769325  0.62716288    -0.57400
H633        H  0.84388704  0.53527041  0.54446985     0.18100
O634        O  0.91204922  0.57951822  0.52059523    -0.64100
H635        H  0.91304491  0.58177072  0.60334180     0.16600
C636        C  0.89590686  0.55150741  0.67913518     0.28800
C637        C  0.89789210  0.54961026  0.72285592    -0.25000
C638        C  0.88911738  0.55690031  0.75243533    -0.24300
C639        C  0.87862366  0.56674148  0.73703041     0.40300
C640        C  0.87662243  0.56856206  0.69312357    -0.26800
O641        O  0.90358890  0.54309415  0.65129768    -0.58700
H642        H  0.90594168  0.54192147  0.73350215     0.15900
O643        O  0.86982727  0.57421368  0.76436831    -0.60100
H644        H  0.86815911  0.57570173  0.68171049     0.14400
H645        H  0.91330834  0.59299325  0.51451887     0.46200
H646        H  0.91812663  0.55374937  0.64726623     0.41600
H647        H  0.85562943  0.56278290  0.76852205     0.45100
H648        H  0.84410329  0.52418618  0.63135342     0.36500
C649        C  0.89729279  0.57049620  0.09071110    -0.27700
C650        C  0.88021258  0.56109059  0.11748939     0.01900
C651        C  0.86048275  0.55048751  0.09962809     0.30000
C652        C  0.85810914  0.54838804  0.05545853    -0.19500
C653        C  0.87526313  0.55674601  0.02862591    -0.28900
C654        C  0.89495967  0.56846082  0.04655153     0.44000
C655        C  0.88324571  0.56014943  0.16363900     0.05200
O656        O  0.84351695  0.54111257  0.12513754    -0.57400
H657        H  0.84284709  0.53941146  0.04226624     0.18100
O658        O  0.91211281  0.57634875  0.02161077    -0.64100
H659        H  0.91255674  0.57863524  0.10422446     0.16600
C660        C  0.89337925  0.55008324  0.17870997     0.28800
C661        C  0.89507745  0.54793935  0.22233144    -0.25000
C662        C  0.88682677  0.55577300  0.25192943    -0.24300
C663        C  0.87706942  0.56633952  0.23664112     0.40300
C664        C  0.87523054  0.56831584  0.19273043    -0.26800
O665        O  0.90059612  0.54119426  0.15092842    -0.58700
H666        H  0.90256875  0.53967282  0.23282472     0.15900
O667        O  0.86857292  0.57409310  0.26403316    -0.60100
H668        H  0.86734311  0.57604909  0.18131587     0.14400
H669        H  0.91599365  0.59082613  0.01665024     0.46200
H670        H  0.91558016  0.55072435  0.14960366     0.41600
H671        H  0.87956172  0.58836547  0.26975543     0.45100
H672        H  0.84086931  0.52696641  0.12930621     0.36500
C673        C  0.88599504  0.46801262  0.54011311    -0.27700
C674        C  0.89545242  0.45788543  0.52236861     0.01900
C675        C  0.90359030  0.46304881  0.48109273     0.30000
C676        C  0.90083992  0.47706463  0.45694969    -0.19500
C677        C  0.88999525  0.48613957  0.47351973    -0.28900
C678        C  0.88327877  0.48207219  0.51622249     0.44000
C679        C  0.89439138  0.44031950  0.54538989     0.05200
O680        O  0.91351594  0.45384692  0.46349253    -0.57400
H681        H  0.90643821  0.48010391  0.42454831     0.18100
O682        O  0.87371612  0.49144222  0.53482173    -0.64100
H683        H  0.87969869  0.46421746  0.57193286     0.16600
C684        C  0.90188369  0.44242177  0.58714100     0.28800
C685        C  0.89777520  0.42500689  0.61058987    -0.25000
C686        C  0.88585351  0.40524424  0.59322908    -0.24300
C687        C  0.87930410  0.40333667  0.55041432     0.40300
C688        C  0.88355252  0.42078361  0.52703498    -0.26800
O689        O  0.91315795  0.46145307  0.60525199    -0.58700
H690        H  0.90332750  0.42703180  0.64304913     0.15900
O691        O  0.86797233  0.38451758  0.53150732    -0.60100
H692        H  0.87754274  0.41896497  0.49497873     0.14400
H693        H  0.85889776  0.48118344  0.53376056     0.46200
H694        H  0.90383772  0.46259540  0.62575895     0.41600
H695        H  0.87814561  0.38149417  0.51875320     0.45100
H696        H  0.92790849  0.46217110  0.47323148     0.36500
C697        C  0.81863182  0.39814020  0.23557445    -0.27700
C698        C  0.82611755  0.40684064  0.27572311     0.01900
C699        C  0.83637337  0.39930668  0.30080056     0.30000
C700        C  0.84073288  0.38479388  0.28404674    -0.19500
C701        C  0.83522812  0.37768346  0.24206006    -0.28900
C702        C  0.82293616  0.38352742  0.21877528     0.44000
C703        C  0.82664203  0.42600347  0.28846754     0.05200
O704        O  0.84379942  0.40733941  0.34035920    -0.57400
H705        H  0.84987899  0.38033265  0.30290184     0.18100
O706        O  0.81685795  0.37678196  0.17794052    -0.64100
H707        H  0.81057233  0.40367171  0.21609034     0.16600
C708        C  0.83812611  0.44397552  0.26444478     0.28800
C709        C  0.84407891  0.46307980  0.28255775    -0.25000
C710        C  0.83860326  0.46464258  0.32453215    -0.24300
C711        C  0.82478819  0.44649029  0.34624360     0.40300
C712        C  0.81911713  0.42737147  0.32832343    -0.26800
O713        O  0.84566553  0.44320794  0.22527173    -0.58700
H714        H  0.85427938  0.47673543  0.26472928     0.15900
O715        O  0.81839028  0.44714253  0.38667669    -0.60100
H716        H  0.81001069  0.41363046  0.34687998     0.14400
H717        H  0.80359539  0.36385975  0.18091168     0.46200
H718        H  0.83627668  0.44411622  0.20443176     0.41600
H719        H  0.80590770  0.44815960  0.38283273     0.45100
H720        H  0.85760713  0.41930112  0.33528420     0.36500
C721        C  0.98040632  0.60939088  0.92335697    -0.27700
C722        C  0.99286493  0.60165367  0.90961047     0.01900
C723        C  0.98379049  0.58248535  0.88922583     0.30000
C724        C  0.96261955  0.57105229  0.88411721    -0.19500
C725        C  0.94991045  0.57840224  0.89861085    -0.28900
C726        C  0.95903701  0.59788635  0.91812310     0.44000
C727        C  0.01510565  0.61266773  0.91901581     0.05200
O728        O  0.99552874  0.57465184  0.87452604    -0.57400
H729        H  0.95615072  0.55630626  0.86844756     0.18100
O730        O  0.94726614  0.60561678  0.93306076    -0.64100
H731        H  0.98719359  0.62407547  0.93936233     0.16600
C732        C  0.02849511  0.63245951  0.90323974     0.28800
C733        C  0.04968907  0.64152036  0.90998526    -0.25000
C734        C  0.05775564  0.63095649  0.93219795    -0.24300
C735        C  0.04410075  0.61153024  0.94959269     0.40300
C736        C  0.02310347  0.60257577  0.94271105    -0.26800
O737        O  0.02109635  0.64280292  0.88026259    -0.58700
H738        H  0.05984077  0.65652731  0.89673056     0.15900
O739        O  0.05107606  0.60104863  0.97343426    -0.60100
H740        H  0.01295092  0.58750276  0.95572578     0.14400
H741        H  0.94587662  0.60267923  0.96401397     0.46200
H742        H  0.02017882  0.63804329  0.85051096     0.41600
H743        H  0.05177652  0.60590604  0.00303630     0.45100
H744        H  0.99968730  0.58029734  0.84542031     0.36500
C745        C  0.02730939  0.63194237  0.40527180    -0.27700
C746        C  0.01448126  0.61135650  0.41697348     0.01900
C747        C  0.02328837  0.60075239  0.43625102     0.30000
C748        C  0.04444657  0.61025718  0.44171523    -0.19500
C749        C  0.05749502  0.63063868  0.42896049    -0.28900
C750        C  0.04864436  0.64162022  0.41121118     0.44000
C751        C  0.99213110  0.60042182  0.40723125     0.05200
O752        O  0.01129982  0.58091422  0.44974618    -0.57400
H753        H  0.05062673  0.60150423  0.45628272     0.18100
O754        O  0.06062205  0.66165433  0.39897292    -0.64100
H755        H  0.02084569  0.64037380  0.39041442     0.16600
C756        C  0.97918131  0.60770733  0.42090434     0.28800
C757        C  0.95792903  0.59600180  0.41367657    -0.25000
C758        C  0.94922394  0.57679825  0.39338087    -0.24300
C759        C  0.96243524  0.56999467  0.37843441     0.40300
C760        C  0.98351062  0.58174831  0.38527628    -0.26800
O761        O  0.98701901  0.62589639  0.44250122    -0.58700
H762        H  0.94819760  0.60165368  0.42521804     0.15900
O763        O  0.95495622  0.55172044  0.35725515    -0.60100
H764        H  0.99321961  0.57606996  0.37367466     0.14400
H765        H  0.06358540  0.66108220  0.36845221     0.46200
H766        H  0.98767018  0.62242521  0.47269217     0.41600
H767        H  0.95503125  0.55512132  0.32674535     0.45100
H768        H  0.00709336  0.58199250  0.47903862     0.36500
C769        C  0.13131359  0.69531192  0.63104894    -0.27700
C770        C  0.12017285  0.67930062  0.65982541     0.01900
C771        C  0.10705341  0.65945943  0.64404052     0.30000
C772        C  0.10604564  0.65564473  0.60035063    -0.19500
C773        C  0.11803476  0.67138243  0.57147243    -0.28900
C774        C  0.13021878  0.69153804  0.58717449     0.44000
C775        C  0.12404102  0.68266934  0.70617940     0.05200
O776        O  0.09588811  0.64344567  0.67124535    -0.57400
H777        H  0.09625915  0.64010130  0.58922689     0.18100
O778        O  0.14210934  0.70745005  0.56039920    -0.64100
H779        H  0.14140749  0.71068210  0.64277139     0.16600
C780        C  0.14366767  0.68902831  0.72262444     0.28800
C781        C  0.14650490  0.68850551  0.76646612    -0.25000
C782        C  0.13000817  0.68185247  0.79475869    -0.24300
C783        C  0.11058630  0.67674187  0.77843713     0.40300
C784        C  0.10774416  0.67717881  0.73442124    -0.26800
O785        O  0.15981882  0.69407094  0.69587431    -0.58700
H786        H  0.16157575  0.69258406  0.77819943     0.15900
O787        O  0.09403498  0.67018838  0.80482336    -0.60100
H788        H  0.09257428  0.67233451  0.72214570     0.14400
H789        H  0.13385961  0.71399042  0.55392323     0.46200
H790        H  0.16771800  0.70925939  0.69555667     0.41600
H791        H  0.08800436  0.65513297  0.80688020     0.45100
H792        H  0.10489277  0.63780273  0.67818200     0.36500
C793        C  0.14532937  0.69267905  0.22266303    -0.27700
C794        C  0.12551681  0.68484481  0.20627270     0.01900
C795        C  0.10891193  0.67787223  0.23448493     0.30000
C796        C  0.11206816  0.67750978  0.27828497    -0.19500
C797        C  0.13167803  0.68378316  0.29448446    -0.28900
C798        C  0.14850405  0.69219576  0.26641347     0.44000
C799        C  0.12203729  0.68076517  0.16012879     0.05200
O800        O  0.08937331  0.67013294  0.21929701    -0.57400
H801        H  0.09894642  0.67104224  0.29926740     0.18100
O802        O  0.16798674  0.69902743  0.28110618    -0.64100
H803        H  0.15822498  0.69796171  0.20128031     0.16600
C804        C  0.13104823  0.69649333  0.12971650     0.28800
C805        C  0.12933512  0.69160446  0.08623890    -0.25000
C806        C  0.11889266  0.67103582  0.07257119    -0.24300
C807        C  0.10915969  0.65541800  0.10343757     0.40300
C808        C  0.11090726  0.66037658  0.14656251    -0.26800
O809        O  0.14137166  0.71662588  0.14221756    -0.58700
H810        H  0.13669892  0.70392945  0.06336121     0.15900
O811        O  0.09832162  0.63513443  0.09214609    -0.60100
H812        H  0.10402108  0.64811715  0.16973842     0.14400
H813        H  0.17324372  0.71350274  0.28935654     0.46200
H814        H  0.15605522  0.72073933  0.14159310     0.41600
H815        H  0.08406861  0.63210660  0.08787100     0.45100
H816        H  0.08779017  0.68225464  0.21467173     0.36500
C817        C  0.97747617  0.40065910  0.68674487    -0.27700
C818        C  0.98566589  0.39156507  0.66072313     0.01900
C819        C  0.97248990  0.37271373  0.64086883     0.30000
C820        C  0.95125918  0.36331430  0.64681370    -0.19500
C821        C  0.94299894  0.37272754  0.67204440    -0.28900
C822        C  0.95640913  0.39139989  0.69269751     0.44000
C823        C  0.00797879  0.40252026  0.65367055     0.05200
O824        O  0.98018519  0.36362991  0.61492689    -0.57400
H825        H  0.94123765  0.34898544  0.63077231     0.18100
O826        O  0.94910954  0.40074316  0.71902178    -0.64100
H827        H  0.98751968  0.41508442  0.70248304     0.16600
C828        C  0.01747458  0.42151935  0.63274320     0.28800
C829        C  0.03874048  0.43277802  0.62945656    -0.25000
C830        C  0.05097883  0.42548990  0.64713497    -0.24300
C831        C  0.04142535  0.40626129  0.66759883     0.40300
C832        C  0.02000942  0.39487207  0.67059829    -0.26800
O833        O  0.00600362  0.42902617  0.61478038    -0.58700
H834        H  0.04567450  0.44731943  0.61286591     0.15900
O835        O  0.05282185  0.39872339  0.68569986    -0.60100
H836        H  0.01280530  0.38034108  0.68722994     0.14400
H837        H  0.94802345  0.39456203  0.74745099     0.46200
H838        H  0.00682495  0.43945720  0.63510035     0.41600
H839        H  0.05449536  0.40304695  0.71592708     0.45100
H840        H  0.98133546  0.36980185  0.58646532     0.36500
C841        C  0.18015722  0.57291666  0.57790298    -0.27700
C842        C  0.17151828  0.57413879  0.53921465     0.01900
C843        C  0.15851828  0.55595499  0.51689234     0.30000
C844        C  0.15318506  0.53697157  0.53475069    -0.19500
C845        C  0.16013674  0.53558752  0.57554474    -0.28900
C846        C  0.17446146  0.55386492  0.59632363     0.44000
C847        C  0.17303231  0.59369699  0.52574859     0.05200
O848        O  0.14957485  0.55646790  0.47918008    -0.57400
H849        H  0.14230881  0.52326300  0.51780435     0.18100
O850        O  0.18192365  0.55341471  0.63589912    -0.64100
H851        H  0.19028214  0.58678435  0.59528773     0.16600
C852        C  0.16541624  0.60333434  0.55234657     0.28800
C853        C  0.16142555  0.61815579  0.53570125    -0.25000
C854        C  0.16480335  0.62357387  0.49247889    -0.24300
C855        C  0.17463989  0.61561384  0.46716586     0.40300
C856        C  0.17855597  0.60071045  0.48385754    -0.26800
O857        O  0.16013879  0.59713607  0.59371393    -0.58700
H858        H  0.15424387  0.62429940  0.55601184     0.15900
O859        O  0.17852335  0.62057972  0.42491751    -0.60100
H860        H  0.18461657  0.59358305  0.46314446     0.14400
H861        H  0.17286900  0.55509811  0.65624179     0.46200
H862        H  0.14583472  0.58558806  0.59239071     0.41600
H863        H  0.19262887  0.63250195  0.42411409     0.45100
H864        H  0.13681860  0.55628172  0.48730889     0.36500
C865        C  0.09964393  0.54043608  0.73693010    -0.27700
C866        C  0.11000785  0.54687649  0.77595421     0.01900
C867        C  0.12194049  0.53851644  0.78997931     0.30000
C868        C  0.12368926  0.52424263  0.76480787    -0.19500
C869        C  0.11392384  0.51819466  0.72487763    -0.28900
C870        C  0.10157376  0.52631067  0.71132594     0.44000
C871        C  0.10965409  0.56340667  0.80056653     0.05200
O872        O  0.13260059  0.54477668  0.82760147    -0.57400
H873        H  0.13331817  0.51840876  0.77621340     0.18100
O874        O  0.09153923  0.52084380  0.67295193    -0.64100
H875        H  0.09035306  0.54672402  0.72585638     0.16600
C876        C  0.11751742  0.58305786  0.78293617     0.28800
C877        C  0.11990500  0.59929778  0.80838552    -0.25000
C878        C  0.11446786  0.59633572  0.85168702    -0.24300
C879        C  0.10536262  0.57628863  0.86855358     0.40300
C880        C  0.10317725  0.56008889  0.84307543    -0.26800
O881        O  0.12446643  0.58689396  0.74180037    -0.58700
H882        H  0.12679998  0.61444503  0.79442298     0.15900
O883        O  0.09981837  0.57252062  0.91053771    -0.60100
H884        H  0.09700954  0.54498252  0.85694128     0.14400
H885        H  0.10077532  0.53160498  0.65271118     0.46200
H886        H  0.11332136  0.58688275  0.72506252     0.41600
H887        H  0.08513100  0.56840841  0.91103876     0.45100
H888        H  0.14574938  0.55719993  0.82036923     0.36500
C889        C  0.01800848  0.42254865  0.14214192    -0.27700
C890        C  0.00883060  0.40224432  0.15633308     0.01900
C891        C  0.02127561  0.39362240  0.16424434     0.30000
C892        C  0.04263954  0.40558944  0.15951981    -0.19500
C893        C  0.05194365  0.42627577  0.14697861    -0.28900
C894        C  0.03919040  0.43447459  0.13727565     0.44000
C895        C  0.98640132  0.39085064  0.16442582     0.05200
O896        O  0.01277504  0.37368352  0.17744339    -0.57400
H897        H  0.05194141  0.39875070  0.16645293     0.18100
O898        O  0.04717622  0.45420008  0.12297480    -0.64100
H899        H  0.00863855  0.42928682  0.13488925     0.16600
C900        C  0.97776223  0.39916971  0.19182873     0.28800
C901        C  0.95656740  0.38935752  0.19708824    -0.25000
C902        C  0.94337360  0.37118073  0.17511540    -0.24300
C903        C  0.95201300  0.36257801  0.14822783     0.40300
C904        C  0.97339284  0.37236899  0.14321526    -0.26800
O905        O  0.99002561  0.41673775  0.21440387    -0.58700
H906        H  0.95043916  0.39615364  0.21852781     0.15900
O907        O  0.93975500  0.34504234  0.12568197    -0.60100
H908        H  0.97977572  0.36586834  0.12167328     0.14400
H909        H  0.04715221  0.45320879  0.09150230     0.46200
H910        H  0.98828156  0.42757689  0.20055783     0.41600
H911        H  0.93824165  0.34981446  0.09722214     0.45100
H912        H  0.01259211  0.37427843  0.20894790     0.36500
C913        C  0.16401160  0.55791281  0.01631352    -0.27700
C914        C  0.17435579  0.57569141  0.04130567     0.01900
C915        C  0.18090365  0.57405725  0.08246358     0.30000
C916        C  0.17522879  0.55473369  0.09947860    -0.19500
C917        C  0.16298628  0.53675991  0.07596622    -0.28900
C918        C  0.15847688  0.53863842  0.03313045     0.44000
C919        C  0.17471542  0.59470892  0.02700077     0.05200
O920        O  0.19157416  0.59111216  0.10746706    -0.57400
H921        H  0.17906353  0.55377817  0.13232406     0.18100
O922        O  0.14730366  0.52161256  0.00831338    -0.64100
H923        H  0.15871589  0.55868778  0.98468680     0.16600
C924        C  0.18045586  0.60238869  0.98532465     0.28800
C925        C  0.17582986  0.61704463  0.96964174    -0.25000
C926        C  0.16521561  0.62403218  0.99484224    -0.24300
C927        C  0.16145866  0.61789672  0.03788569     0.40300
C928        C  0.16605412  0.60330836  0.05343112    -0.26800
O929        O  0.19013244  0.59527261  0.95947055    -0.58700
H930        H  0.17920376  0.62173399  0.93667887     0.15900
O931        O  0.15195982  0.62493937  0.06438289    -0.60100
H932        H  0.16144045  0.59764429  0.08552982     0.14400
H933        H  0.15758205  0.51925697  0.99387062     0.46200
H934        H  0.18018077  0.58739892  0.93659708     0.41600
H935        H  0.16309069  0.63815958  0.07558790     0.45100
H936        H  0.20611495  0.59676783  0.09955205     0.36500
C937        C  0.09988599  0.53832904  0.24291840    -0.27700
C938        C  0.11174319  0.54619809  0.27991631     0.01900
C939        C  0.12498148  0.53903764  0.29207085     0.30000
C940        C  0.12695511  0.52504626  0.26633615    -0.19500
C941        C  0.11595009  0.51793807  0.22792148    -0.28900
C942        C  0.10175916  0.52422398  0.21716652     0.44000
C943        C  0.11127856  0.56277668  0.30430659     0.05200
O944        O  0.13668736  0.54622078  0.32825597    -0.57400
H945        H  0.13773969  0.52033276  0.27595967     0.18100
O946        O  0.09009529  0.51727152  0.18092516    -0.64100
H947        H  0.08933930  0.54339553  0.23358984     0.16600
C948        C  0.11615330  0.58143285  0.28455758     0.28800
C949        C  0.11821047  0.59786051  0.30900674    -0.25000
C950        C  0.11537198  0.59604597  0.35333421    -0.24300
C951        C  0.10968596  0.57703390  0.37277859     0.40300
C952        C  0.10757173  0.56061454  0.34823530    -0.26800
O953        O  0.12044591  0.58425737  0.24188325    -0.58700
H954        H  0.12269821  0.61228898  0.29331129     0.15900
O955        O  0.10716095  0.57456175  0.41600653    -0.60100
H956        H  0.10371082  0.54631965  0.36383945     0.14400
H957        H  0.07742033  0.50467586  0.18968637     0.46200
H958        H  0.10795067  0.58286973  0.22830894     0.41600
H959        H  0.12086627  0.57836390  0.42745377     0.45100
H960        H  0.14944225  0.55865962  0.31923821     0.36500
C961        C  0.10147525  0.42810915  0.84323445    -0.27700
C962        C  0.11742836  0.43987740  0.87177328     0.01900
C963        C  0.13678137  0.45421551  0.85572826     0.30000
C964        C  0.13977696  0.45718003  0.81183539    -0.19500
C965        C  0.12363012  0.44606720  0.78300583    -0.28900
C966        C  0.10445461  0.43099025  0.79918368     0.44000
C967        C  0.11349562  0.43874080  0.91812311     0.05200
O968        O  0.15265722  0.46610840  0.88280375    -0.57400
H969        H  0.15468259  0.46875456  0.80046489     0.18100
O970        O  0.08813387  0.41990636  0.77256661    -0.64100
H971        H  0.08649241  0.41703909  0.85521106     0.16600
C972        C  0.09981400  0.44445994  0.93457958     0.28800
C973        C  0.09886257  0.44687577  0.97846816    -0.25000
C974        C  0.11127174  0.44344422  0.00679750    -0.24300
C975        C  0.12404415  0.43644611  0.99034493     0.40300
C976        C  0.12508725  0.43419305  0.94631676    -0.26800
O977        O  0.08849212  0.44928770  0.90782185    -0.58700
H978        H  0.08878998  0.45207857  0.99021305     0.15900
O979        O  0.13628800  0.43267534  0.01665342    -0.60100
H980        H  0.13558966  0.42965617  0.93399511     0.14400
H981        H  0.08791793  0.40682817  0.76769113     0.46200
H982        H  0.07468656  0.43689417  0.90715961     0.41600
H983        H  0.14929319  0.44592360  0.01894269     0.45100
H984        H  0.15108299  0.47806673  0.88955568     0.36500
C985        C  0.13917400  0.45321574  0.35616863    -0.27700
C986        C  0.11940700  0.43996204  0.37143042     0.01900
C987        C  0.10333544  0.42932609  0.34221052     0.30000
C988        C  0.10692013  0.43279873  0.29851360    -0.19500
C989        C  0.12646378  0.44700653  0.28310534    -0.28900
C990        C  0.14281410  0.45676331  0.31245960     0.44000
C991        C  0.11530588  0.43940776  0.41760047     0.05200
O992        O  0.08386252  0.41618041  0.35618584    -0.57400
H993        H  0.09410155  0.42503206  0.27681426     0.18100
O994        O  0.16225867  0.47042135  0.29905828    -0.64100
H995        H  0.15166886  0.46162055  0.37832620     0.16600
C996        C  0.12531125  0.43365196  0.44764755     0.28800
C997        C  0.12272307  0.43551560  0.49130265    -0.25000
C998        C  0.11054692  0.44354746  0.50564243    -0.24300
C999        C  0.09986168  0.44845461  0.47517856     0.40300
C1000       C  0.10233898  0.44638793  0.43177425    -0.26800
O1001       O  0.13760518  0.42618092  0.43458758    -0.58700
H1002       H  0.13096083  0.43144813  0.51384571     0.15900
O1003       O  0.08749443  0.45600170  0.48721261    -0.60100
H1004       H  0.09463776  0.45098975  0.40894759     0.14400
H1005       H  0.16921258  0.46230590  0.29654680     0.46200
H1006       H  0.15181039  0.43772655  0.43803308     0.41600
H1007       H  0.07358254  0.44384413  0.48929918     0.45100
H1008       H  0.08309753  0.40274209  0.35923738     0.36500
C1009       C  0.25437672  0.47350880  0.65130008    -0.27700
C1010       C  0.23697409  0.45774228  0.63118134     0.01900
C1011       C  0.23855681  0.44236018  0.60919876     0.30000
C1012       C  0.25750652  0.44325520  0.60664557    -0.19500
C1013       C  0.27507385  0.45944529  0.62555519    -0.28900
C1014       C  0.27326699  0.47442543  0.64872946     0.44000
C1015       C  0.21766611  0.45833334  0.63172301     0.05200
O1016       O  0.22205414  0.42729865  0.58754304    -0.57400
H1017       H  0.25862070  0.43173681  0.58822683     0.18100
O1018       O  0.28992682  0.49023131  0.66847850    -0.64100
H1019       H  0.25334582  0.48534324  0.66867190     0.16600
C1020       C  0.19935828  0.44193231  0.64771281     0.28800
C1021       C  0.18167843  0.44348596  0.64960198    -0.25000
C1022       C  0.18200627  0.46149332  0.63669403    -0.24300
C1023       C  0.20033709  0.47779943  0.62017642     0.40300
C1024       C  0.21786642  0.47605884  0.61761012    -0.26800
O1025       O  0.19874663  0.42462308  0.66301442    -0.58700
H1026       H  0.16788470  0.43083899  0.66284038     0.15900
O1027       O  0.20124247  0.49539335  0.60578547    -0.60100
H1028       H  0.23179998  0.48874658  0.60489997     0.14400
H1029       H  0.29108934  0.48458526  0.69617391     0.46200
H1030       H  0.20298680  0.42765946  0.69326062     0.41600
H1031       H  0.20796679  0.50554547  0.62897609     0.45100
H1032       H  0.21813923  0.41443215  0.60316174     0.36500
C1033       C  0.20423555  0.44701543  0.16484580    -0.27700
C1034       C  0.21899740  0.45834964  0.13386771     0.01900
C1035       C  0.21493677  0.46976271  0.10383094     0.30000
C1036       C  0.19695559  0.47074716  0.10671873    -0.19500
C1037       C  0.18259134  0.46005033  0.13865543    -0.28900
C1038       C  0.18612757  0.44779024  0.16734681     0.44000
C1039       C  0.23890038  0.45885041  0.13389247     0.05200
O1040       O  0.22822738  0.47949241  0.07086270    -0.57400
H1041       H  0.19423713  0.47992371  0.08398302     0.18100
O1042       O  0.17237053  0.43717130  0.19902277    -0.64100
H1043       H  0.20706136  0.43808032  0.18801080     0.16600
C1044       C  0.25742315  0.47765327  0.13541947     0.28800
C1045       C  0.27605592  0.47815557  0.13150283    -0.25000
C1046       C  0.27683909  0.46002271  0.12696637    -0.24300
C1047       C  0.25828826  0.44105014  0.12882751     0.40300
C1048       C  0.23954310  0.44060706  0.13220037    -0.26800
O1049       O  0.25750736  0.49573386  0.14044889    -0.58700
H1050       H  0.28996263  0.49295352  0.13147463     0.15900
O1051       O  0.25820231  0.42286155  0.12715620    -0.60100
H1052       H  0.22543788  0.42597323  0.13228797     0.14400
H1053       H  0.17594348  0.44712117  0.22262162     0.46200
H1054       H  0.25587543  0.49687769  0.17144713     0.41600
H1055       H  0.25514414  0.41836187  0.09706858     0.45100
H1056       H  0.23374525  0.49434383  0.07553993     0.36500
C1057       C  0.30658895  0.43252286  0.81449976    -0.27700
C1058       C  0.32272200  0.43591079  0.84172864     0.01900
C1059       C  0.34147684  0.43998670  0.82425520     0.30000
C1060       C  0.34426918  0.44171101  0.78012674    -0.19500
C1061       C  0.32852581  0.43949128  0.75266779    -0.28900
C1062       C  0.30931919  0.43420940  0.77026687     0.44000
C1063       C  0.32097986  0.43837862  0.88792858     0.05200
O1064       O  0.35750879  0.44335205  0.85017562    -0.57400
H1065       H  0.35910057  0.44558396  0.76749312     0.18100
O1066       O  0.29344940  0.43175798  0.74487894    -0.64100
H1067       H  0.29212312  0.42951469  0.82773328     0.16600
C1068       C  0.32173473  0.45622927  0.90306908     0.28800
C1069       C  0.32138305  0.45938521  0.94676802    -0.25000
C1070       C  0.32061475  0.44505262  0.97650009    -0.24300
C1071       C  0.31959435  0.42693479  0.96105073     0.40300
C1072       C  0.31988589  0.42379653  0.91704978    -0.26800
O1073       O  0.32346242  0.47103686  0.87527163    -0.58700
H1074       H  0.32236281  0.47350290  0.95729305     0.15900
O1075       O  0.31909385  0.41254758  0.98844826    -0.60100
H1076       H  0.31954679  0.41009692  0.90563658     0.14400
H1077       H  0.29467175  0.44545419  0.74372183     0.46200
H1078       H  0.33833632  0.47970834  0.86978914     0.41600
H1079       H  0.30436285  0.40256624  0.99269722     0.45100
H1080       H  0.36455585  0.45816176  0.85715897     0.36500
C1081       C  0.31213724  0.45229900  0.40294590    -0.27700
C1082       C  0.31551417  0.43674390  0.38820049     0.01900
C1083       C  0.31800342  0.42419749  0.41785528     0.30000
C1084       C  0.31820936  0.42801457  0.46152872    -0.19500
C1085       C  0.31597953  0.44436162  0.47647051    -0.28900
C1086       C  0.31222302  0.45610273  0.44652720     0.44000
C1087       C  0.31868340  0.43539078  0.34208716     0.05200
O1088       O  0.32099778  0.40863866  0.40439654    -0.57400
H1089       H  0.32094850  0.41862008  0.48360398     0.18100
O1090       O  0.30949270  0.47193488  0.45919255    -0.64100
H1091       H  0.31033911  0.46218285  0.38048894     0.16600
C1092       C  0.30383434  0.43292957  0.31187267     0.28800
C1093       C  0.30844474  0.43469353  0.26835564    -0.25000
C1094       C  0.32799395  0.43944362  0.25440385    -0.24300
C1095       C  0.34245956  0.44082280  0.28471014     0.40300
C1096       C  0.33773018  0.43878580  0.32806292    -0.26800
O1097       O  0.28485709  0.42896127  0.32468292    -0.58700
H1098       H  0.29703661  0.43342456  0.24568442     0.15900
O1099       O  0.36153463  0.44486090  0.27251432    -0.60100
H1100       H  0.34934211  0.44079933  0.35097406     0.14400
H1101       H  0.29447241  0.46588480  0.46162338     0.46200
H1102       H  0.28494505  0.44204998  0.32100471     0.41600
H1103       H  0.35976986  0.43139321  0.26428271     0.45100
H1104       H  0.30706425  0.39664493  0.40070994     0.36500
C1105       C  0.43903503  0.53818782  0.03169641    -0.27700
C1106       C  0.43581642  0.54542866  0.99306311     0.01900
C1107       C  0.41577257  0.53740652  0.97745962     0.30000
C1108       C  0.39923749  0.52281195  0.00098194    -0.19500
C1109       C  0.40221901  0.51603127  0.04063452    -0.28900
C1110       C  0.42245982  0.52348051  0.05534417     0.44000
C1111       C  0.45317372  0.56194200  0.96961897     0.05200
O1112       O  0.41212793  0.54426537  0.93982350    -0.57400
H1113       H  0.38396809  0.51734484  0.98858806     0.18100
O1114       O  0.42628711  0.51701997  0.09326105    -0.64100
H1115       H  0.45444124  0.54411088  0.04373306     0.16600
C1116       C  0.46511164  0.58150614  0.98771161     0.28800
C1117       C  0.47915561  0.59781194  0.96251540    -0.25000
C1118       C  0.48159096  0.59486432  0.91920310    -0.24300
C1119       C  0.47026692  0.57492269  0.90187891     0.40300
C1120       C  0.45634501  0.55870129  0.92717025    -0.26800
O1121       O  0.46201975  0.58516650  0.02899063    -0.58700
H1122       H  0.48763003  0.61293048  0.97660434     0.15900
O1123       O  0.47182033  0.57120860  0.85972829    -0.60100
H1124       H  0.44726619  0.54365955  0.91301472     0.14400
H1125       H  0.42703671  0.50462451  0.08612252     0.46200
H1126       H  0.47309200  0.58497247  0.04561312     0.41600
H1127       H  0.46127084  0.57309514  0.84493631     0.45100
H1128       H  0.41082150  0.55627641  0.94761684     0.36500
C1129       C  0.39330425  0.57011451  0.68349835    -0.27700
C1130       C  0.40246948  0.57024712  0.72250797     0.01900
C1131       C  0.39531526  0.55173649  0.74484272     0.30000
C1132       C  0.38033690  0.53333995  0.72677738    -0.19500
C1133       C  0.37254072  0.53282997  0.68576840    -0.28900
C1134       C  0.37834034  0.55162005  0.66516999     0.44000
C1135       C  0.42135093  0.58887407  0.73696994     0.05200
O1136       O  0.40406476  0.55121524  0.78280709    -0.57400
H1137       H  0.37602277  0.51924016  0.74370628     0.18100
O1138       O  0.37095885  0.55205337  0.62551903    -0.64100
H1139       H  0.39859715  0.58428399  0.66609804     0.16600
C1140       C  0.43924473  0.59697009  0.71224695     0.28800
C1141       C  0.45804565  0.61161568  0.72959095    -0.25000
C1142       C  0.45949587  0.61831778  0.77186579    -0.24300
C1143       C  0.44128204  0.61134292  0.79546651     0.40300
C1144       C  0.42245490  0.59666074  0.77800971    -0.26800
O1145       O  0.43878242  0.58955322  0.67217299    -0.58700
H1146       H  0.47172494  0.61677094  0.71066227     0.15900
O1147       O  0.44183685  0.61722513  0.83694387    -0.60100
H1148       H  0.40881278  0.59050766  0.79743159     0.14400
H1149       H  0.35878597  0.55344452  0.63075583     0.46200
H1150       H  0.44085252  0.57770135  0.67640677     0.41600
H1151       H  0.43939454  0.62894224  0.83558307     0.45100
H1152       H  0.41586646  0.54958111  0.77501811     0.36500
C1153       C  0.56370170  0.66509392  0.53123253    -0.27700
C1154       C  0.55515175  0.67289080  0.55994623     0.01900
C1155       C  0.54444259  0.68230618  0.54424145     0.30000
C1156       C  0.54172314  0.68313752  0.50046044    -0.19500
C1157       C  0.54967866  0.67477412  0.47163008    -0.28900
C1158       C  0.56119425  0.66613322  0.48728833     0.44000
C1159       C  0.55593463  0.66982111  0.60622451     0.05200
O1160       O  0.53583324  0.68999266  0.57154813    -0.57400
H1161       H  0.53285752  0.68984572  0.48905735     0.18100
O1162       O  0.56870326  0.65726524  0.46020976    -0.64100
H1163       H  0.57191757  0.65775250  0.54297576     0.16600
C1164       C  0.54637691  0.64996912  0.62344648     0.28800
C1165       C  0.54451990  0.64726736  0.66753008    -0.25000
C1166       C  0.55203215  0.66417994  0.69532444    -0.24300
C1167       C  0.56249207  0.68410889  0.67783403     0.40300
C1168       C  0.56442179  0.68675687  0.63365065    -0.26800
O1169       O  0.53739085  0.63309824  0.59741040    -0.58700
H1170       H  0.53645393  0.63176426  0.67977227     0.15900
O1171       O  0.57036750  0.70113213  0.70334057    -0.60100
H1172       H  0.57192383  0.70212270  0.62064553     0.14400
H1173       H  0.58313160  0.66795366  0.45505842     0.46200
H1174       H  0.54735166  0.62823529  0.59577452     0.41600
H1175       H  0.55976388  0.70518203  0.70371361     0.45100
H1176       H  0.52224852  0.67817900  0.57883557     0.36500
C1177       C  0.56364894  0.69160269  0.13527739    -0.27700
C1178       C  0.55612394  0.67524705  0.10642687     0.01900
C1179       C  0.54718266  0.65511103  0.12186715     0.30000
C1180       C  0.54541229  0.65147569  0.16563354    -0.19500
C1181       C  0.55221369  0.66771495  0.19496622    -0.28900
C1182       C  0.56176962  0.68801278  0.17926621     0.44000
C1183       C  0.55598094  0.67896981  0.06031415     0.05200
O1184       O  0.53942094  0.63879922  0.09433723    -0.57400
H1185       H  0.53803994  0.63573722  0.17645042     0.18100
O1186       O  0.56909059  0.70444872  0.20637664    -0.64100
H1187       H  0.57058421  0.70718147  0.12359896     0.16600
C1188       C  0.54307687  0.68568954  0.04377712     0.28800
C1189       C  0.54055034  0.68611101  0.99977071    -0.25000
C1190       C  0.55091095  0.68003806  0.97152376    -0.24300
C1191       C  0.56480460  0.67446990  0.98824318     0.40300
C1192       C  0.56708632  0.67379333  0.03237439    -0.26800
O1193       O  0.53159364  0.69025480  0.07043486    -0.58700
H1194       H  0.52978730  0.69041963  0.98779839     0.15900
O1195       O  0.57490601  0.66798903  0.96206683    -0.60100
H1196       H  0.57697583  0.66848193  0.04488753     0.14400
H1197       H  0.55806348  0.70788511  0.20814482     0.46200
H1198       H  0.53985299  0.70526291  0.07501827     0.41600
H1199       H  0.58818767  0.68045588  0.95584695     0.45100
H1200       H  0.52485724  0.63476564  0.09026651     0.36500
C1201       C  0.43573056  0.53454558  0.51980288    -0.27700
C1202       C  0.43230100  0.54370659  0.48431033     0.01900
C1203       C  0.41212384  0.53809997  0.47309900     0.30000
C1204       C  0.39579109  0.52398269  0.49785259    -0.19500
C1205       C  0.39912697  0.51529405  0.53445517    -0.28900
C1206       C  0.41935821  0.52033805  0.54465940     0.44000
C1207       C  0.44973810  0.55976582  0.45999400     0.05200
O1208       O  0.40823536  0.54685894  0.43872405    -0.57400
H1209       H  0.38048758  0.52039915  0.48897382     0.18100
O1210       O  0.42342576  0.51182763  0.57918864    -0.64100
H1211       H  0.45118402  0.53853974  0.52842649     0.16600
C1212       C  0.46438095  0.57803079  0.47987097     0.28800
C1213       C  0.47910435  0.59417130  0.45533882    -0.25000
C1214       C  0.47955807  0.59238297  0.41087521    -0.24300
C1215       C  0.46532958  0.57374842  0.39127904     0.40300
C1216       C  0.45070168  0.55760745  0.41588548    -0.26800
O1217       O  0.46342054  0.58083485  0.52274289    -0.58700
H1218       H  0.48975881  0.60839344  0.47102936     0.15900
O1219       O  0.46473807  0.57152147  0.34788928    -0.60100
H1220       H  0.43950718  0.54361340  0.40023564     0.14400
H1221       H  0.42173161  0.49867054  0.56874804     0.46200
H1222       H  0.47396489  0.57837632  0.53573251     0.41600
H1223       H  0.45563706  0.57654491  0.33752040     0.45100
H1224       H  0.40841014  0.55918355  0.45012314     0.36500
C1225       C  0.39414172  0.55549818  0.24331154    -0.27700
C1226       C  0.40288250  0.57280598  0.21681126     0.01900
C1227       C  0.39528499  0.57095668  0.17508462     0.30000
C1228       C  0.38066160  0.55170317  0.15924971    -0.19500
C1229       C  0.37343175  0.53398403  0.18446713    -0.28900
C1230       C  0.37957919  0.53623022  0.22753753     0.44000
C1231       C  0.42198975  0.59142204  0.23085159     0.05200
O1232       O  0.40304208  0.58763983  0.14863419    -0.57400
H1233       H  0.37618569  0.55048884  0.12611932     0.18100
O1234       O  0.37209170  0.51956370  0.25405913    -0.64100
H1235       H  0.39974414  0.55654108  0.27550482     0.16600
C1236       C  0.42350938  0.60041183  0.27092933     0.28800
C1237       C  0.44276393  0.61473308  0.28741330    -0.25000
C1238       C  0.46077869  0.62003798  0.26474848    -0.24300
C1239       C  0.45899402  0.61244923  0.22288297     0.40300
C1240       C  0.43977716  0.59824482  0.20647266    -0.26800
O1241       O  0.40627618  0.59488460  0.29457951    -0.58700
H1242       H  0.44359807  0.62053420  0.31930703     0.15900
O1243       O  0.47599010  0.61763377  0.19870959    -0.60100
H1244       H  0.43897005  0.59148260  0.17561577     0.14400
H1245       H  0.38327666  0.51639362  0.25698334     0.46200
H1246       H  0.40702741  0.58693283  0.31895887     0.41600
H1247       H  0.47857523  0.63005122  0.18279091     0.45100
H1248       H  0.39444029  0.59391279  0.15366545     0.36500
C1249       C  0.41672493  0.39799228  0.55032667    -0.27700
C1250       C  0.40141960  0.39042431  0.58149049     0.01900
C1251       C  0.39813386  0.37347315  0.60626305     0.30000
C1252       C  0.41058881  0.36480661  0.60057455    -0.19500
C1253       C  0.42667750  0.37323963  0.57108533    -0.28900
C1254       C  0.42939299  0.38967849  0.54525712     0.44000
C1255       C  0.39039430  0.40161250  0.59006914     0.05200
O1256       O  0.38339674  0.36582997  0.63722002    -0.57400
H1257       H  0.40826131  0.35209137  0.62048049     0.18100
O1258       O  0.44457997  0.39792315  0.51524218    -0.64100
H1259       H  0.41920573  0.41079758  0.53053809     0.16600
C1260       C  0.40152301  0.42260915  0.59982052     0.28800
C1261       C  0.39132375  0.43339179  0.60688212    -0.25000
C1262       C  0.36986007  0.42368015  0.60439135    -0.24300
C1263       C  0.35864176  0.40249491  0.59514117     0.40300
C1264       C  0.36894890  0.39163038  0.58814458    -0.26800
O1265       O  0.42241662  0.43256455  0.60420702    -0.58700
H1266       H  0.40044135  0.44951614  0.61466627     0.15900
O1267       O  0.33768776  0.39219899  0.59312996    -0.60100
H1268       H  0.36020611  0.37544228  0.58068692     0.14400
H1269       H  0.43883770  0.38892836  0.48996285     0.46200
H1270       H  0.42790391  0.44125562  0.57847775     0.41600
H1271       H  0.33437577  0.39313810  0.56295165     0.45100
H1272       H  0.38998490  0.37446996  0.66263914     0.36500
C1273       C  0.42124504  0.40155114  0.04778402    -0.27700
C1274       C  0.40478728  0.39313478  0.07632960     0.01900
C1275       C  0.40029292  0.37522005  0.09888162     0.30000
C1276       C  0.41280465  0.36659127  0.09424622    -0.19500
C1277       C  0.43002626  0.37580523  0.06771248    -0.28900
C1278       C  0.43380850  0.39304782  0.04335420     0.44000
C1279       C  0.39360963  0.40418438  0.08490628     0.05200
O1280       O  0.38417589  0.36646037  0.12666709    -0.57400
H1281       H  0.40947448  0.35311869  0.11261337     0.18100
O1282       O  0.44976022  0.40173271  0.01511729    -0.64100
H1283       H  0.42458544  0.41502183  0.02939519     0.16600
C1284       C  0.40440492  0.42476572  0.09802177     0.28800
C1285       C  0.39388174  0.43502044  0.10747624    -0.25000
C1286       C  0.37243601  0.42520269  0.10398354    -0.24300
C1287       C  0.36160873  0.40457559  0.09032142     0.40300
C1288       C  0.37221849  0.39422636  0.08109982    -0.26800
O1289       O  0.42522154  0.43470741  0.10378068    -0.58700
H1290       H  0.40271520  0.45077865  0.11806766     0.15900
O1291       O  0.34072223  0.39428920  0.08621429    -0.60100
H1292       H  0.36373115  0.37840049  0.07078799     0.14400
H1293       H  0.44424728  0.39395215  0.98825754     0.46200
H1294       H  0.43104009  0.44425614  0.07937152     0.41600
H1295       H  0.33809960  0.39646765  0.05626382     0.45100
H1296       H  0.38960806  0.37391871  0.15387796     0.36500
C1297       C  0.45683654  0.31721287  0.78167787    -0.27700
C1298       C  0.44275607  0.32246419  0.79732879     0.01900
C1299       C  0.43117786  0.32680701  0.76834033     0.30000
C1300       C  0.43475658  0.32711563  0.72448538    -0.19500
C1301       C  0.44989080  0.32318095  0.70902073    -0.28900
C1302       C  0.46032395  0.31735809  0.73810334     0.44000
C1303       C  0.44240569  0.32580515  0.84369226     0.05200
O1304       O  0.41702657  0.33167430  0.78263202    -0.57400
H1305       H  0.42644939  0.33149704  0.70280998     0.18100
O1306       O  0.47470388  0.31266480  0.72452724    -0.64100
H1307       H  0.46601333  0.31401575  0.80346023     0.16600
C1308       C  0.44010368  0.31079984  0.87334381     0.28800
C1309       C  0.44335004  0.31561071  0.91676538    -0.25000
C1310       C  0.44941967  0.33547813  0.93117423    -0.24300
C1311       C  0.45088946  0.35022984  0.90154771     0.40300
C1312       C  0.44723968  0.34526793  0.85832880    -0.26800
O1313       O  0.43477583  0.29143790  0.86003218    -0.58700
H1314       H  0.44197467  0.30398555  0.93892882     0.15900
O1315       O  0.45587206  0.36955297  0.91443458    -0.60100
H1316       H  0.44922639  0.35703393  0.83589606     0.14400
H1317       H  0.46688439  0.29788454  0.71731000     0.46200
H1318       H  0.44727384  0.29042176  0.86363202     0.41600
H1319       H  0.47060625  0.37835173  0.90774286     0.45100
H1320       H  0.40456869  0.31833991  0.78859235     0.36500
C1321       C  0.45841925  0.31690686  0.28038572    -0.27700
C1322       C  0.44552831  0.32361278  0.29659553     0.01900
C1323       C  0.43477842  0.32918699  0.26795239     0.30000
C1324       C  0.43809693  0.32937088  0.22407722    -0.19500
C1325       C  0.45213258  0.32405854  0.20797871    -0.28900
C1326       C  0.46174345  0.31704976  0.23656605     0.44000
C1327       C  0.44527035  0.32691446  0.34311750     0.05200
O1328       O  0.42162275  0.33529712  0.28263054    -0.57400
H1329       H  0.43041980  0.33467023  0.20282571     0.18100
O1330       O  0.47457073  0.31046837  0.22207406    -0.64100
H1331       H  0.46680085  0.31253183  0.30185163     0.16600
C1332       C  0.44149740  0.31142426  0.37280031     0.28800
C1333       C  0.44364308  0.31581270  0.41653752    -0.25000
C1334       C  0.44986234  0.33567460  0.43136179    -0.24300
C1335       C  0.45269698  0.35088847  0.40149957     0.40300
C1336       C  0.45054080  0.34646994  0.35798352    -0.26800
O1337       O  0.43551544  0.29192845  0.35931260    -0.58700
H1338       H  0.44112793  0.30378983  0.43874478     0.15900
O1339       O  0.45800992  0.37030877  0.41428106    -0.60100
H1340       H  0.45364582  0.35862068  0.33561782     0.14400
H1341       H  0.48861367  0.32195963  0.22764454     0.46200
H1342       H  0.44753426  0.29019564  0.36401895     0.41600
H1343       H  0.44486782  0.36970293  0.42049521     0.45100
H1344       H  0.40868689  0.32242637  0.28875140     0.36500
C1345       C  0.74376172  0.52258798  0.87568802    -0.27700
C1346       C  0.76166305  0.53944196  0.85983464     0.01900
C1347       C  0.76044843  0.55562101  0.84046704     0.30000
C1348       C  0.74162836  0.55500025  0.83815051    -0.19500
C1349       C  0.72373933  0.53824417  0.85440522    -0.28900
C1350       C  0.72493574  0.52187043  0.87306889     0.44000
C1351       C  0.78142554  0.53982769  0.86386402     0.05200
O1352       O  0.77734768  0.57150054  0.82162294    -0.57400
H1353       H  0.74096022  0.56745310  0.82255443     0.18100
O1354       O  0.70784181  0.50509903  0.88898688    -0.64100
H1355       H  0.74442443  0.50998626  0.89058348     0.16600
C1356       C  0.79844267  0.55621867  0.88409754     0.28800
C1357       C  0.81661286  0.55575397  0.88926164    -0.25000
C1358       C  0.81796767  0.53873895  0.87583085    -0.24300
C1359       C  0.80093793  0.52237839  0.85539403     0.40300
C1360       C  0.78295930  0.52309850  0.84930804    -0.26800
O1361       O  0.79721656  0.57237310  0.90057320    -0.58700
H1362       H  0.82936403  0.56833832  0.90562384     0.15900
O1363       O  0.80181294  0.50575567  0.84057404    -0.60100
H1364       H  0.77004811  0.51039835  0.83356010     0.14400
H1365       H  0.70683327  0.50866627  0.91889237     0.46200
H1366       H  0.79128760  0.56787983  0.92935801     0.41600
H1367       H  0.79449802  0.49485188  0.86208307     0.45100
H1368       H  0.78047746  0.58387675  0.83833095     0.36500
C1369       C  0.61037441  0.59013696  0.89151625    -0.27700
C1370       C  0.61345428  0.60344774  0.85763883     0.01900
C1371       C  0.62787321  0.60646715  0.82594098     0.30000
C1372       C  0.63836371  0.59552616  0.82759129    -0.19500
C1373       C  0.63425716  0.58130357  0.86023023    -0.28900
C1374       C  0.62058104  0.57907778  0.89289513     0.44000
C1375       C  0.60012764  0.61251035  0.85395534     0.05200
O1376       O  0.63110397  0.61933397  0.79232853    -0.57400
H1377       H  0.64889065  0.59738152  0.80235681     0.18100
O1378       O  0.61670831  0.56568694  0.92585625    -0.64100
H1379       H  0.59953955  0.58787436  0.91638463     0.16600
C1380       C  0.57880122  0.59969044  0.85104378     0.28800
C1381       C  0.56620296  0.60815425  0.84665261    -0.25000
C1382       C  0.57442028  0.62950828  0.84539453    -0.24300
C1383       C  0.59584517  0.64237942  0.84962411     0.40300
C1384       C  0.60850771  0.63381941  0.85345648    -0.26800
O1385       O  0.57019539  0.57878482  0.85034675    -0.58700
H1386       H  0.54988594  0.59779430  0.84346729     0.15900
O1387       O  0.60466562  0.66328875  0.84926113    -0.60100
H1388       H  0.62490840  0.64383402  0.85619546     0.14400
H1389       H  0.62767464  0.57348520  0.94703332     0.46200
H1390       H  0.56442188  0.57411037  0.87918896     0.41600
H1391       H  0.60543535  0.66726842  0.87957360     0.45100
H1392       H  0.62105519  0.61063236  0.77030668     0.36500
C1393       C  0.60893782  0.43100367  0.91720782    -0.27700
C1394       C  0.60026397  0.43007139  0.95714582     0.01900
C1395       C  0.60722499  0.44828121  0.98062826     0.30000
C1396       C  0.62120591  0.46712346  0.96257710    -0.19500
C1397       C  0.62826051  0.46832330  0.92069470    -0.28900
C1398       C  0.62288368  0.44989757  0.89896698     0.44000
C1399       C  0.58176157  0.41097447  0.97118443     0.05200
O1400       O  0.59921467  0.44803047  0.01989793    -0.57400
H1401       H  0.62532319  0.48093762  0.98043500     0.18100
O1402       O  0.62967020  0.45012736  0.85846202    -0.64100
H1403       H  0.60394083  0.41710171  0.89899665     0.16600
C1404       C  0.56388449  0.40239246  0.94606142     0.28800
C1405       C  0.54512631  0.38795416  0.96361095    -0.25000
C1406       C  0.54372224  0.38179718  0.00628835    -0.24300
C1407       C  0.56197272  0.38880978  0.02999777     0.40300
C1408       C  0.58079306  0.40326944  0.01230757    -0.26800
O1409       O  0.56416270  0.40970088  0.90594057    -0.58700
H1410       H  0.53141370  0.38269872  0.94454905     0.15900
O1411       O  0.56150357  0.38292026  0.07148409    -0.60100
H1412       H  0.59447516  0.40952587  0.03180429     0.14400
H1413       H  0.64226759  0.44930266  0.86210859     0.46200
H1414       H  0.56430323  0.39948366  0.88635695     0.41600
H1415       H  0.56112510  0.39368771  0.08883958     0.45100
H1416       H  0.58694047  0.44920682  0.01415573     0.36500
C1417       C  0.54165822  0.44629145  0.66502176    -0.27700
C1418       C  0.54708857  0.44278635  0.70555592     0.01900
C1419       C  0.53757393  0.42267540  0.72150897     0.30000
C1420       C  0.52361764  0.40634832  0.69623018    -0.19500
C1421       C  0.51906790  0.40960150  0.65444778    -0.28900
C1422       C  0.52776596  0.42995636  0.63950991     0.44000
C1423       C  0.56420480  0.45975270  0.72909838     0.05200
O1424       O  0.54264067  0.41867270  0.76089613    -0.57400
H1425       H  0.51705802  0.39097261  0.70887400     0.18100
O1426       O  0.52388399  0.43406570  0.59914098    -0.64100
H1427       H  0.54879020  0.46173381  0.65249254     0.16600
C1428       C  0.58379290  0.47039173  0.71083486     0.28800
C1429       C  0.60043907  0.48459444  0.73497412    -0.25000
C1430       C  0.59803034  0.48857032  0.77764279    -0.24300
C1431       C  0.57812659  0.47867293  0.79519539     0.40300
C1432       C  0.56146329  0.46429191  0.77099355    -0.26800
O1433       O  0.58710532  0.46583648  0.67043744    -0.58700
H1434       H  0.61544595  0.49195227  0.72045404     0.15900
O1435       O  0.57485541  0.48203499  0.83654741    -0.60100
H1436       H  0.54641689  0.45626802  0.78532466     0.14400
H1437       H  0.51311357  0.43777565  0.60252738     0.46200
H1438       H  0.58853734  0.47727396  0.65241831     0.41600
H1439       H  0.57146664  0.49311570  0.83507555     0.45100
H1440       H  0.55462284  0.41691506  0.75604242     0.36500
C1441       C  0.76009087  0.55405980  0.35171063    -0.27700
C1442       C  0.75982254  0.53713523  0.37088305     0.01900
C1443       C  0.74109874  0.52076848  0.38544797     0.30000
C1444       C  0.72301489  0.52136271  0.37997986    -0.19500
C1445       C  0.72320153  0.53812619  0.36010105    -0.28900
C1446       C  0.74201820  0.55462798  0.34608611     0.44000
C1447       C  0.77923408  0.53688060  0.37548925     0.05200
O1448       O  0.74048565  0.50456753  0.40666120    -0.57400
H1449       H  0.70878711  0.50865279  0.39153493     0.18100
O1450       O  0.74292189  0.57118663  0.32595666    -0.64100
H1451       H  0.77436358  0.56674323  0.34026049     0.16600
C1452       C  0.78121169  0.52055104  0.35945255     0.28800
C1453       C  0.79963035  0.52062657  0.36448588    -0.25000
C1454       C  0.81656234  0.53708625  0.38451608    -0.24300
C1455       C  0.81469641  0.55361734  0.39984268     0.40300
C1456       C  0.79617448  0.55343456  0.39515939    -0.26800
O1457       O  0.76533887  0.50455012  0.33829127    -0.58700
H1458       H  0.80072140  0.50779567  0.35229051     0.15900
O1459       O  0.83065159  0.56976923  0.42047149    -0.60100
H1460       H  0.79492189  0.56613807  0.40757224     0.14400
H1461       H  0.74063946  0.56741714  0.29538729     0.46200
H1462       H  0.76625496  0.50936150  0.30858037     0.41600
H1463       H  0.82927825  0.56554392  0.45073646     0.45100
H1464       H  0.73240430  0.49243180  0.38825272     0.36500
C1465       C  0.63080332  0.60975966  0.32779250    -0.27700
C1466       C  0.61575108  0.60628023  0.35814038     0.01900
C1467       C  0.61194689  0.59229759  0.39140722     0.30000
C1468       C  0.62156463  0.58068026  0.39172436    -0.19500
C1469       C  0.63566853  0.58321912  0.36008977    -0.28900
C1470       C  0.64089965  0.59841659  0.32885057     0.44000
C1471       C  0.60215455  0.61498926  0.35227367     0.05200
O1472       O  0.59817795  0.58927208  0.42289469    -0.57400
H1473       H  0.61778315  0.56939514  0.41662033     0.18100
O1474       O  0.65498506  0.60152534  0.29807060    -0.64100
H1475       H  0.63394528  0.62044924  0.30198017     0.16600
C1476       C  0.60970952  0.63604372  0.34583200     0.28800
C1477       C  0.59602954  0.64330223  0.34012741    -0.25000
C1478       C  0.57470052  0.62978609  0.34076945    -0.24300
C1479       C  0.56731151  0.60868926  0.34725073     0.40300
C1480       C  0.58095412  0.60156480  0.35265480    -0.26800
O1481       O  0.63035646  0.64963349  0.34517081    -0.58700
H1482       H  0.60217395  0.65954496  0.33504380     0.15900
O1483       O  0.54674946  0.59476476  0.34883001    -0.60100
H1484       H  0.57483583  0.58526005  0.35677733     0.14400
H1485       H  0.64689729  0.59267698  0.27392849     0.46200
H1486       H  0.63425522  0.65355844  0.37531873     0.41600
H1487       H  0.54310353  0.58867856  0.31993492     0.45100
H1488       H  0.60620965  0.59964958  0.44494635     0.36500
C1489       C  0.60543618  0.43012843  0.41341445    -0.27700
C1490       C  0.59833352  0.42906366  0.45509529     0.01900
C1491       C  0.60667483  0.44714978  0.47956197     0.30000
C1492       C  0.62045739  0.46601582  0.46117721    -0.19500
C1493       C  0.62601108  0.46739336  0.41810603    -0.28900
C1494       C  0.61892842  0.44906256  0.39466765     0.44000
C1495       C  0.57966495  0.41025503  0.46998246     0.05200
O1496       O  0.60024384  0.44682375  0.52048487    -0.57400
H1497       H  0.62576167  0.47977762  0.48006034     0.18100
O1498       O  0.62377555  0.44949166  0.35251161    -0.64100
H1499       H  0.59930360  0.41635899  0.39424387     0.16600
C1500       C  0.56135745  0.40246984  0.44640622     0.28800
C1501       C  0.54273482  0.38837048  0.46486604    -0.25000
C1502       C  0.54178830  0.38191559  0.50718183    -0.24300
C1503       C  0.56030822  0.38796159  0.52915651     0.40300
C1504       C  0.57904396  0.40211433  0.51055813    -0.26800
O1505       O  0.56122105  0.40984208  0.40655076    -0.58700
H1506       H  0.52881185  0.38367157  0.44689525     0.15900
O1507       O  0.56025300  0.38176770  0.57020752    -0.60100
H1508       H  0.59300251  0.40771978  0.52892623     0.14400
H1509       H  0.61235988  0.44936974  0.33659943     0.46200
H1510       H  0.55982667  0.42206206  0.41132530     0.41600
H1511       H  0.56109194  0.36912464  0.56763496     0.45100
H1512       H  0.58786484  0.44810679  0.51777928     0.36500
C1513       C  0.70063743  0.57205315  0.55110053    -0.27700
C1514       C  0.68489960  0.56718722  0.58044442     0.01900
C1515       C  0.66489964  0.56009655  0.56558354     0.30000
C1516       C  0.66069621  0.55746438  0.52210288    -0.19500
C1517       C  0.67615967  0.56150714  0.49245123    -0.28900
C1518       C  0.69642119  0.56928055  0.50730535     0.44000
C1519       C  0.68849574  0.56699482  0.62663470     0.05200
O1520       O  0.64911035  0.55475450  0.59355496    -0.57400
H1521       H  0.64504514  0.55161189  0.51175516     0.18100
O1522       O  0.71207429  0.57356242  0.47966082    -0.64100
H1523       H  0.71607789  0.57738676  0.56228965     0.16600
C1524       C  0.69269917  0.55229571  0.64367017     0.28800
C1525       C  0.69092360  0.54852004  0.68742685    -0.25000
C1526       C  0.68521080  0.55943321  0.71502815    -0.24300
C1527       C  0.68273565  0.57541152  0.69819394     0.40300
C1528       C  0.68419262  0.57893026  0.65420789    -0.26800
O1529       O  0.69666086  0.54021515  0.61741318    -0.58700
H1530       H  0.69325102  0.53640317  0.69952374     0.15900
O1531       O  0.67724588  0.58654582  0.72377245    -0.60100
H1532       H  0.68087746  0.59026695  0.64132340     0.14400
H1533       H  0.71256684  0.56071267  0.47765384     0.46200
H1534       H  0.71179138  0.54700784  0.61626209     0.41600
H1535       H  0.69021842  0.59933068  0.73030111     0.45100
H1536       H  0.64431900  0.54029942  0.60125151     0.36500
C1537       C  0.68176453  0.57735624  0.15452368    -0.27700
C1538       C  0.68627212  0.56564058  0.12676237     0.01900
C1539       C  0.69091280  0.55119653  0.14363103     0.30000
C1540       C  0.68996840  0.54788285  0.18752912    -0.19500
C1541       C  0.68430336  0.55874380  0.21536897    -0.28900
C1542       C  0.68083406  0.57408798  0.19852353     0.44000
C1543       C  0.68333881  0.56643691  0.08040439     0.05200
O1544       O  0.69529282  0.53943938  0.11729006    -0.57400
H1545       H  0.69294530  0.53618686  0.19961046     0.18100
O1546       O  0.67502859  0.58491965  0.22423805    -0.64100
H1547       H  0.67811987  0.58849570  0.14185033     0.16600
C1548       C  0.66383975  0.56077026  0.06430946     0.28800
C1549       C  0.66024419  0.55855667  0.02056670    -0.25000
C1550       C  0.67586338  0.56186757  0.99190003    -0.24300
C1551       C  0.69572378  0.56860148  0.00795633     0.40300
C1552       C  0.69930750  0.57080491  0.05198763    -0.26800
O1553       O  0.64777059  0.55574753  0.09130474    -0.58700
H1554       H  0.64488095  0.55351616  0.00924655     0.15900
O1555       O  0.71153442  0.57230245  0.98126755    -0.60100
H1556       H  0.71441269  0.57525402  0.06409506     0.14400
H1557       H  0.68790289  0.59766255  0.23151253     0.46200
H1558       H  0.64600169  0.56789849  0.09157339     0.41600
H1559       H  0.71130391  0.55908480  0.97921789     0.45100
H1560       H  0.68193428  0.52697590  0.11141888     0.36500
C1561       C  0.56274782  0.46405566  0.26814281    -0.27700
C1562       C  0.56568449  0.46083128  0.22545120     0.01900
C1563       C  0.58499495  0.47313945  0.20679307     0.30000
C1564       C  0.60127676  0.48767822  0.23136079    -0.19500
C1565       C  0.59875042  0.49012686  0.27490850    -0.28900
C1566       C  0.57906318  0.47849857  0.29292084     0.44000
C1567       C  0.54930442  0.44324438  0.20182908     0.05200
O1568       O  0.58840203  0.47034253  0.16512670    -0.57400
H1569       H  0.61616293  0.49644320  0.21659980     0.18100
O1570       O  0.57574182  0.48031779  0.33516044    -0.64100
H1571       H  0.54791717  0.45472640  0.28278812     0.16600
C1572       C  0.54184271  0.42313955  0.21663560     0.28800
C1573       C  0.52821467  0.40647687  0.19170407    -0.25000
C1574       C  0.52185986  0.40940173  0.15144025    -0.24300
C1575       C  0.52865724  0.42966140  0.13762280     0.40300
C1576       C  0.54234496  0.44632728  0.16266914    -0.26800
O1577       O  0.54848233  0.41957816  0.25465443    -0.58700
H1578       H  0.52322902  0.39119320  0.20345602     0.15900
O1579       O  0.52276378  0.43347204  0.09899234    -0.60100
H1580       H  0.54792616  0.46174739  0.15102876     0.14400
H1581       H  0.57761297  0.46974896  0.34990235     0.46200
H1582       H  0.56134397  0.41969582  0.24790255     0.41600
H1583       H  0.51030133  0.43424687  0.10496988     0.45100
H1584       H  0.59148507  0.45903831  0.16559283     0.36500
C1585       C  0.51429754  0.77433656  0.77896744    -0.27700
C1586       C  0.52977298  0.77425497  0.80345659     0.01900
C1587       C  0.54502972  0.79270416  0.82174288     0.30000
C1588       C  0.54490599  0.81097374  0.81461196    -0.19500
C1589       C  0.52945731  0.81111236  0.78985897    -0.28900
C1590       C  0.51402998  0.79249008  0.77207105     0.44000
C1591       C  0.52973507  0.75478010  0.80972215     0.05200
O1592       O  0.56000309  0.79299361  0.84698035    -0.57400
H1593       H  0.55678842  0.82502110  0.82887923     0.18100
O1594       O  0.49880521  0.79186142  0.74711398    -0.64100
H1595       H  0.50250284  0.76026729  0.76457818     0.16600
C1596       C  0.51275446  0.73770390  0.82791562     0.28800
C1597       C  0.51274118  0.71931212  0.83297953    -0.25000
C1598       C  0.52966178  0.71754980  0.82065270    -0.24300
C1599       C  0.54662350  0.73466072  0.80196613     0.40300
C1600       C  0.54656800  0.75308367  0.79676983    -0.26800
O1601       O  0.49621291  0.73895434  0.84161191    -0.58700
H1602       H  0.49957266  0.70652582  0.84770996     0.15900
O1603       O  0.56330896  0.73359712  0.78860815    -0.60100
H1604       H  0.55964221  0.76605106  0.78221830     0.14400
H1605       H  0.50446582  0.79488731  0.71786979     0.46200
H1606       H  0.49934695  0.74360302  0.87160930     0.41600
H1607       H  0.56078136  0.72996795  0.75801042     0.45100
H1608       H  0.55374234  0.78871069  0.87555991     0.36500
C1609       C  0.51557276  0.73969634  0.33585157    -0.27700
C1610       C  0.53154251  0.75506869  0.31182903     0.01900
C1611       C  0.54683297  0.75151053  0.29563431     0.30000
C1612       C  0.54604669  0.73288226  0.30369606    -0.19500
C1613       C  0.52990475  0.71737971  0.32721660    -0.28900
C1614       C  0.51464276  0.72099646  0.34354997     0.44000
C1615       C  0.53189627  0.77461084  0.30355978     0.05200
O1616       O  0.56239928  0.76598731  0.27120562    -0.57400
H1617       H  0.55788117  0.73039488  0.29071609     0.18100
O1618       O  0.49888872  0.70649373  0.36759511    -0.64100
H1619       H  0.50382276  0.74227044  0.34899139     0.16600
C1620       C  0.51483975  0.77458859  0.28546812     0.28800
C1621       C  0.51512333  0.79304704  0.27896554    -0.25000
C1622       C  0.53237442  0.81196678  0.28985855    -0.24300
C1623       C  0.54953809  0.81194379  0.30779142     0.40300
C1624       C  0.54919297  0.79339236  0.31437432    -0.26800
O1625       O  0.49782287  0.75657590  0.27364068    -0.58700
H1626       H  0.50177133  0.79248107  0.26479525     0.15900
O1627       O  0.56671347  0.82988318  0.31921951    -0.60100
H1628       H  0.56239198  0.79366064  0.32862271     0.14400
H1629       H  0.50389715  0.70943222  0.39740244     0.46200
H1630       H  0.50100776  0.75341346  0.24502284     0.41600
H1631       H  0.56465679  0.83200889  0.34953164     0.45100
H1632       H  0.55718693  0.76297087  0.24155007     0.36500
C1633       C  0.54776049  0.85745742  0.57036429    -0.27700
C1634       C  0.56163089  0.87708319  0.55518541     0.01900
C1635       C  0.57257608  0.89307076  0.58443677     0.30000
C1636       C  0.56850450  0.88963256  0.62806721    -0.19500
C1637       C  0.55334065  0.87036645  0.64307481    -0.28900
C1638       C  0.54357185  0.85400460  0.61387623     0.44000
C1639       C  0.56166649  0.88129830  0.50919314     0.05200
O1640       O  0.58634053  0.91239559  0.57046913    -0.57400
H1641       H  0.57631441  0.90240563  0.64984879     0.18100
O1642       O  0.52915282  0.83478717  0.62719614    -0.64100
H1643       H  0.53917628  0.84504189  0.54815197     0.16600
C1644       C  0.56785204  0.87201452  0.47846314     0.28800
C1645       C  0.56472725  0.87398631  0.43502725    -0.25000
C1646       C  0.55494421  0.88475233  0.42169012    -0.24300
C1647       C  0.54939570  0.89457311  0.45287737     0.40300
C1648       C  0.55295906  0.89293132  0.49596301    -0.26800
O1649       O  0.57691892  0.86099310  0.49063183    -0.58700
H1650       H  0.56928008  0.86641474  0.41191853     0.15900
O1651       O  0.54035185  0.90576596  0.44180136    -0.60100
H1652       H  0.54801396  0.90004362  0.51939154     0.14400
H1653       H  0.53700245  0.82804869  0.63557597     0.46200
H1654       H  0.56576352  0.84647925  0.49053749     0.41600
H1655       H  0.52550375  0.89648364  0.44657562     0.45100
H1656       H  0.59918671  0.91220160  0.56548343     0.36500
C1657       C  0.56999459  0.89375072  0.08215968    -0.27700
C1658       C  0.55685700  0.87838032  0.05377327     0.01900
C1659       C  0.54148049  0.85948965  0.06970921     0.30000
C1660       C  0.53895433  0.85634865  0.11349165    -0.19500
C1661       C  0.55142068  0.87197367  0.14228753    -0.28900
C1662       C  0.56747765  0.89062479  0.12624350     0.44000
C1663       C  0.55788906  0.88242171  0.00766270     0.05200
O1664       O  0.52816385  0.84433040  0.04268178    -0.57400
H1665       H  0.52657465  0.84185090  0.12488386     0.18100
O1666       O  0.57980660  0.90640322  0.15307500    -0.64100
H1667       H  0.58182649  0.90839368  0.07008369     0.16600
C1668       C  0.55258190  0.89648453  0.99147895     0.28800
C1669       C  0.55015380  0.89763252  0.94763042    -0.25000
C1670       C  0.55307186  0.88494269  0.91924079    -0.24300
C1671       C  0.55918815  0.87139599  0.93562342     0.40300
C1672       C  0.56158086  0.87028155  0.97951092    -0.26800
O1673       O  0.54823351  0.90804058  0.01848021    -0.58700
H1674       H  0.54545114  0.90814636  0.93597197     0.15900
O1675       O  0.56202507  0.85853427  0.90938322    -0.60100
H1676       H  0.56552626  0.85929264  0.99179850     0.14400
H1677       H  0.59204604  0.90504233  0.15774693     0.46200
H1678       H  0.56066136  0.92182626  0.01845403     0.41600
H1679       H  0.54846471  0.84585860  0.90754378     0.45100
H1680       H  0.51719271  0.84754906  0.03674897     0.36500
C1681       C  0.77275164  0.26020692  0.68938276    -0.27700
C1682       C  0.77372641  0.24262382  0.69937848     0.01900
C1683       C  0.79304025  0.24409385  0.70166504     0.30000
C1684       C  0.81092143  0.26295148  0.69446050    -0.19500
C1685       C  0.81000915  0.28070587  0.68486139    -0.28900
C1686       C  0.79051636  0.27901805  0.68209084     0.44000
C1687       C  0.75443303  0.22297584  0.70743181     0.05200
O1688       O  0.79465490  0.22723909  0.71123503    -0.57400
H1689       H  0.82555410  0.26364079  0.69655140     0.18100
O1690       O  0.78849210  0.29561034  0.67224221    -0.64100
H1691       H  0.75804027  0.25931956  0.68668363     0.16600
C1692       C  0.74007619  0.22198320  0.73725050     0.28800
C1693       C  0.72152394  0.20368690  0.74303293    -0.25000
C1694       C  0.71699600  0.18599456  0.71991435    -0.24300
C1695       C  0.73148296  0.18684496  0.69060775     0.40300
C1696       C  0.74996559  0.20524893  0.68439187    -0.26800
O1697       O  0.74448134  0.23859102  0.76228677    -0.58700
H1698       H  0.71081095  0.20322261  0.76645140     0.15900
O1699       O  0.72762026  0.16988401  0.66743768    -0.60100
H1700       H  0.76071707  0.20575229  0.66104641     0.14400
H1701       H  0.78645384  0.29495263  0.64096229     0.46200
H1702       H  0.73570717  0.24388437  0.75133852     0.41600
H1703       H  0.72034798  0.17037484  0.64154627     0.45100
H1704       H  0.79344984  0.22592699  0.74263745     0.36500
C1705       C  0.62868569  0.02086436  0.73660952    -0.27700
C1706       C  0.61040309  0.01051427  0.75972650     0.01900
C1707       C  0.60203795  0.02174773  0.77766203     0.30000
C1708       C  0.61134834  0.04283823  0.77051149    -0.19500
C1709       C  0.62911361  0.05313025  0.74569077    -0.28900
C1710       C  0.63810288  0.04206091  0.72962736     0.44000
C1711       C  0.59910934  0.98784715  0.76198594     0.05200
O1712       O  0.58479735  0.01217752  0.80242218    -0.57400
H1713       H  0.60443267  0.05113215  0.78391241     0.18100
O1714       O  0.65518895  0.05147179  0.70451610    -0.64100
H1715       H  0.63519960  0.01235160  0.72247450     0.16600
C1716       C  0.57947991  0.97663180  0.74381157     0.28800
C1717       C  0.56817050  0.95541393  0.74844554    -0.25000
C1718       C  0.57614874  0.94482331  0.77068239    -0.24300
C1719       C  0.59618081  0.95591498  0.78736038     0.40300
C1720       C  0.60757485  0.97732627  0.78273742    -0.26800
O1721       O  0.57103597  0.98633957  0.72199638    -0.58700
H1722       H  0.55288898  0.94719984  0.73501624     0.15900
O1723       O  0.60440967  0.94616494  0.80973331    -0.60100
H1724       H  0.62274017  0.98579420  0.79659329     0.14400
H1725       H  0.66685344  0.05529520  0.72416729     0.46200
H1726       H  0.57683929  0.98853598  0.69293847     0.41600
H1727       H  0.60018497  0.94597679  0.83965515     0.45100
H1728       H  0.57376492  0.01221448  0.78533942     0.36500
C1729       C  0.75201938  0.20465488  0.19167107    -0.27700
C1730       C  0.75409173  0.22354447  0.20360228     0.01900
C1731       C  0.73738342  0.22374082  0.22274556     0.30000
C1732       C  0.71900852  0.20543734  0.22917208    -0.19500
C1733       C  0.71681572  0.18646556  0.21741589    -0.28900
C1734       C  0.73360248  0.18622269  0.19843684     0.44000
C1735       C  0.77345689  0.24306848  0.19534473     0.05200
O1736       O  0.73890829  0.24178659  0.23578282    -0.57400
H1737       H  0.70649937  0.20613803  0.24419049     0.18100
O1738       O  0.73216847  0.16815268  0.18594331    -0.64100
H1739       H  0.76461266  0.20420904  0.17641625     0.16600
C1740       C  0.79244626  0.24638133  0.21043830     0.28800
C1741       C  0.81033587  0.26524333  0.20329120    -0.25000
C1742       C  0.80969362  0.28113057  0.18116713    -0.24300
C1743       C  0.79059751  0.27765547  0.16589190     0.40300
C1744       C  0.77281089  0.25881728  0.17294383    -0.26800
O1745       O  0.79352116  0.23165297  0.23401416    -0.58700
H1746       H  0.82471646  0.26752644  0.21571858     0.15900
O1747       O  0.78905724  0.29249510  0.14378915    -0.60100
H1748       H  0.75837597  0.25647528  0.16069269     0.14400
H1749       H  0.72757292  0.16629289  0.15586523     0.46200
H1750       H  0.79908878  0.22538241  0.21442565     0.41600
H1751       H  0.79064080  0.28999046  0.11344259     0.45100
H1752       H  0.74527204  0.24443903  0.26444204     0.36500
C1753       C  0.63025214  0.02377825  0.25705626    -0.27700
C1754       C  0.60918280  0.01047367  0.25106362     0.01900
C1755       C  0.59705548  0.01858029  0.23661604     0.30000
C1756       C  0.60570588  0.03961415  0.23026612    -0.19500
C1757       C  0.62667546  0.05319458  0.23732698    -0.28900
C1758       C  0.63904339  0.04498046  0.25027852     0.44000
C1759       C  0.59932113  0.98839076  0.26238109     0.05200
O1760       O  0.57654347  0.00601501  0.22894057    -0.57400
H1761       H  0.59580702  0.04525353  0.21957027     0.18100
O1762       O  0.65965908  0.05743981  0.25673104    -0.64100
H1763       H  0.63981080  0.01780113  0.26812670     0.16600
C1764       C  0.60498860  0.97502787  0.24353147     0.28800
C1765       C  0.59350774  0.95382372  0.25169157    -0.25000
C1766       C  0.57622166  0.94571450  0.27828947    -0.24300
C1767       C  0.57142239  0.95940799  0.29882955     0.40300
C1768       C  0.58288585  0.98037379  0.29084304    -0.26800
O1769       O  0.62121743  0.98240270  0.21605743    -0.58700
H1770       H  0.59764518  0.94367379  0.23594186     0.15900
O1771       O  0.55528181  0.95247415  0.32648221    -0.60100
H1772       H  0.57860300  0.99046606  0.30639507     0.14400
H1773       H  0.66109550  0.06159713  0.28704359     0.46200
H1774       H  0.61550627  0.98275403  0.18782459     0.41600
H1775       H  0.56078222  0.95128741  0.35435621     0.45100
H1776       H  0.57568515  0.00048209  0.19992291     0.36500
C1777       C  0.67971647  0.10786877  0.92975899    -0.27700
C1778       C  0.67996841  0.12245983  0.95766918     0.01900
C1779       C  0.68220897  0.14076767  0.94128407     0.30000
C1780       C  0.68269169  0.14371441  0.89736743    -0.19500
C1781       C  0.68058595  0.12838905  0.86887533    -0.28900
C1782       C  0.68013497  0.11075855  0.88552730     0.44000
C1783       C  0.67449175  0.11736520  0.00285308     0.05200
O1784       O  0.68296261  0.15547014  0.96808996    -0.57400
H1785       H  0.68356076  0.15763593  0.88571870     0.18100
O1786       O  0.67844627  0.09552636  0.85917842    -0.64100
H1787       H  0.67794742  0.09368409  0.94219867     0.16600
C1788       C  0.65474250  0.11205801  0.01633504     0.28800
C1789       C  0.65004656  0.10989069  0.05958806    -0.25000
C1790       C  0.66483088  0.11287097  0.09041050    -0.24300
C1791       C  0.68439459  0.11712428  0.07656064     0.40300
C1792       C  0.68907472  0.11932691  0.03293862    -0.26800
O1793       O  0.64014708  0.10986849  0.98740344    -0.58700
H1794       H  0.63489728  0.10653716  0.06894656     0.15900
O1795       O  0.69903052  0.11915766  0.10519685    -0.60100
H1796       H  0.70427704  0.12321461  0.02271610     0.14400
H1797       H  0.69272970  0.09919712  0.85283566     0.46200
H1798       H  0.63420505  0.09570388  0.97634024     0.41600
H1799       H  0.70823865  0.13412721  0.10867268     0.45100
H1800       H  0.66883323  0.15313826  0.96857905     0.36500
C1801       C  0.68073809  0.14079470  0.44083839    -0.27700
C1802       C  0.67481251  0.12117260  0.45646481     0.01900
C1803       C  0.67000887  0.10520354  0.42725852     0.30000
C1804       C  0.67037358  0.10880256  0.38342696    -0.19500
C1805       C  0.67545201  0.12824941  0.36787092    -0.28900
C1806       C  0.68123269  0.14444396  0.39710261     0.44000
C1807       C  0.67213965  0.11730713  0.50306707     0.05200
O1808       O  0.66432153  0.08586006  0.44124301    -0.57400
H1809       H  0.66581727  0.09609934  0.36167142     0.18100
O1810       O  0.68680066  0.16380718  0.38342499    -0.64100
H1811       H  0.68424551  0.15323239  0.46266168     0.16600
C1812       C  0.68754434  0.12993079  0.53226962     0.28800
C1813       C  0.68378868  0.12718451  0.57614778    -0.25000
C1814       C  0.66461914  0.11217293  0.59174988    -0.24300
C1815       C  0.64952690  0.09900422  0.56242813     0.40300
C1816       C  0.65332560  0.10170101  0.51866119    -0.26800
O1817       O  0.70636266  0.14488284  0.51816906    -0.58700
H1818       H  0.69569449  0.13741137  0.59791935     0.15900
O1819       O  0.63079335  0.08372282  0.57604535    -0.60100
H1820       H  0.64121089  0.09195411  0.49675837     0.14400
H1821       H  0.70167141  0.17046266  0.37760398     0.46200
H1822       H  0.70698729  0.15806329  0.52438843     0.41600
H1823       H  0.63235579  0.07152990  0.57955512     0.45100
H1824       H  0.67730473  0.08575373  0.44471498     0.36500
C1825       C  0.45435006  0.20893788  0.56637212    -0.27700
C1826       C  0.46692592  0.22624584  0.54140191     0.01900
C1827       C  0.47872980  0.22446700  0.50887178     0.30000
C1828       C  0.47824070  0.20590968  0.50241188    -0.19500
C1829       C  0.46560770  0.18861310  0.52710257    -0.28900
C1830       C  0.45343639  0.19015190  0.55904725     0.44000
C1831       C  0.46795916  0.24616520  0.54964767     0.05200
O1832       O  0.49067424  0.24075218  0.48287724    -0.57400
H1833       H  0.48751731  0.20492366  0.47734129     0.18100
O1834       O  0.44144206  0.17372141  0.58465479    -0.64100
H1835       H  0.44542972  0.21005097  0.59202704     0.16600
C1836       C  0.45013570  0.24761787  0.55167999     0.28800
C1837       C  0.45160365  0.26666506  0.55838962    -0.25000
C1838       C  0.47073020  0.28464762  0.56330648    -0.24300
C1839       C  0.48859280  0.28311263  0.56105928     0.40300
C1840       C  0.48706317  0.26403425  0.55472957    -0.26800
O1841       O  0.43124443  0.23064975  0.54521354    -0.58700
H1842       H  0.43760850  0.26727604  0.55963393     0.15900
O1843       O  0.50767966  0.30006417  0.56528584    -0.60100
H1844       H  0.50095262  0.26321084  0.55374130     0.14400
H1845       H  0.42761503  0.16717585  0.57163186     0.46200
H1846       H  0.42473798  0.22702594  0.57367224     0.41600
H1847       H  0.51189170  0.30533110  0.53593766     0.45100
H1848       H  0.48197874  0.23902858  0.45775010     0.36500
C1849       C  0.53004335  0.11573401  0.36367832    -0.27700
C1850       C  0.54081478  0.10707952  0.38233403     0.01900
C1851       C  0.53680209  0.10048388  0.42486800     0.30000
C1852       C  0.52294366  0.10349079  0.44879485    -0.19500
C1853       C  0.51296069  0.11325891  0.43104372    -0.28900
C1854       C  0.51620307  0.11882922  0.38753661     0.44000
C1855       C  0.55798302  0.10747381  0.35892350     0.05200
O1856       O  0.54702890  0.09186822  0.44386219    -0.57400
H1857       H  0.52072594  0.09893833  0.48193407     0.18100
O1858       O  0.50664205  0.12809520  0.36833619    -0.64100
H1859       H  0.53309896  0.12100766  0.33100671     0.16600
C1860       C  0.55491025  0.09668532  0.32061405     0.28800
C1861       C  0.57178491  0.09935087  0.29686643    -0.25000
C1862       C  0.59193363  0.11297027  0.31056082    -0.24300
C1863       C  0.59480365  0.12293737  0.35030633     0.40300
C1864       C  0.57794671  0.12018291  0.37381891    -0.26800
O1865       O  0.53547632  0.08345262  0.30629654    -0.58700
H1866       H  0.56903485  0.09126775  0.26693634     0.15900
O1867       O  0.61400084  0.13607638  0.36595312    -0.60100
H1868       H  0.58051062  0.12859898  0.40328130     0.14400
H1869       H  0.49336012  0.11669358  0.35805593     0.46200
H1870       H  0.53258335  0.09128039  0.28477418     0.41600
H1871       H  0.61770448  0.12737484  0.38308452     0.45100
H1872       H  0.53833871  0.07693817  0.43876026     0.36500
C1873       C  0.57101958  0.17502324  0.57803642    -0.27700
C1874       C  0.57125809  0.16775869  0.61900624     0.01900
C1875       C  0.55308709  0.15844547  0.64296471     0.30000
C1876       C  0.53472803  0.15479258  0.62436852    -0.19500
C1877       C  0.53406127  0.16001897  0.58163921    -0.28900
C1878       C  0.55263385  0.17123423  0.55924088     0.44000
C1879       C  0.58924482  0.16643356  0.63337797     0.05200
O1880       O  0.55275321  0.15126170  0.68326051    -0.57400
H1881       H  0.52073227  0.14642000  0.64248578     0.18100
O1882       O  0.55281040  0.17655871  0.51745887    -0.64100
H1883       H  0.58492558  0.18232089  0.55937318     0.16600
C1884       C  0.59578774  0.15504143  0.60940458     0.28800
C1885       C  0.61010710  0.15045910  0.62638712    -0.25000
C1886       C  0.61797593  0.15677452  0.66766735    -0.24300
C1887       C  0.61251405  0.16946978  0.69042740     0.40300
C1888       C  0.59817551  0.17410049  0.67327302    -0.26800
O1889       O  0.58719398  0.14704108  0.57050215    -0.58700
H1890       H  0.61407633  0.14081274  0.60807602     0.15900
O1891       O  0.61964200  0.17596235  0.73090189    -0.60100
H1892       H  0.59328027  0.18288316  0.69204068     0.14400
H1893       H  0.55472980  0.19054349  0.51832106     0.46200
H1894       H  0.57466672  0.13382175  0.57684310     0.41600
H1895       H  0.63215184  0.18952707  0.72727207     0.45100
H1896       H  0.55001217  0.13707145  0.67933091     0.36500
C1897       C  0.48258354  0.22705309  0.00853940    -0.27700
C1898       C  0.46724066  0.22720375  0.03320276     0.01900
C1899       C  0.45140107  0.20856814  0.04959264     0.30000
C1900       C  0.45127422  0.19026411  0.04166191    -0.19500
C1901       C  0.46706192  0.19025872  0.01824325    -0.28900
C1902       C  0.48273101  0.20890663  0.00136614     0.44000
C1903       C  0.46828753  0.24697896  0.04223823     0.05200
O1904       O  0.43623575  0.20812305  0.07419186    -0.57400
H1905       H  0.43908507  0.17612681  0.05487238     0.18100
O1906       O  0.49829384  0.20964595  0.97766923    -0.64100
H1907       H  0.49459033  0.24112626  0.99474325     0.16600
C1908       C  0.48645180  0.26382124  0.05780673     0.28800
C1909       C  0.48731450  0.28244056  0.06572399    -0.25000
C1910       C  0.47021433  0.28471528  0.05862702    -0.24300
C1911       C  0.45197649  0.26778261  0.04307504     0.40300
C1912       C  0.45117949  0.24917939  0.03490143    -0.26800
O1913       O  0.50314609  0.26192057  0.06736032    -0.58700
H1914       H  0.50140176  0.29504412  0.07822041     0.15900
O1915       O  0.43480043  0.26913833  0.03579769    -0.60100
H1916       H  0.43716945  0.23646689  0.02240266     0.14400
H1917       H  0.49293164  0.20644490  0.94813979     0.46200
H1918       H  0.51351120  0.27005253  0.04545723     0.41600
H1919       H  0.43583606  0.27353876  0.00572158     0.45100
H1920       H  0.44146153  0.21009492  0.10380894     0.36500
C1921       C  0.53844857  0.10071714  0.92718217    -0.27700
C1922       C  0.54480889  0.10987827  0.88711655     0.01900
C1923       C  0.53629955  0.12118601  0.87017631     0.30000
C1924       C  0.52186123  0.12346695  0.89349221    -0.19500
C1925       C  0.51581029  0.11484456  0.93432872    -0.28900
C1926       C  0.52403198  0.10302272  0.95072590     0.44000
C1927       C  0.56115765  0.10862907  0.86401642     0.05200
O1928       O  0.54257961  0.13072777  0.83146578    -0.57400
H1929       H  0.51596694  0.13268379  0.87999343     0.18100
O1930       O  0.51873895  0.09426076  0.99030278    -0.64100
H1931       H  0.54492133  0.09197542  0.94051528     0.16600
C1932       C  0.58104404  0.11765824  0.88096821     0.28800
C1933       C  0.59695433  0.11874739  0.85642984    -0.25000
C1934       C  0.59339737  0.11079213  0.81479030    -0.24300
C1935       C  0.57308997  0.10046115  0.79906954     0.40300
C1936       C  0.55724826  0.09966937  0.82350650    -0.26800
O1937       O  0.58537766  0.12687661  0.92019604    -0.58700
H1938       H  0.61229569  0.12661967  0.86956782     0.15900
O1939       O  0.56866368  0.09220004  0.75894656    -0.60100
H1940       H  0.54192302  0.09251694  0.81032176     0.14400
H1941       H  0.50688425  0.08034975  0.98540515     0.46200
H1942       H  0.58571157  0.11678626  0.93991111     0.41600
H1943       H  0.56466670  0.07762207  0.76283076     0.45100
H1944       H  0.55430301  0.14452903  0.83792833     0.36500
C1945       C  0.60076422  0.16136492  0.09709117    -0.27700
C1946       C  0.59415713  0.17269611  0.12086042     0.01900
C1947       C  0.60262723  0.17980447  0.16155464     0.30000
C1948       C  0.61581749  0.17385181  0.17948676    -0.19500
C1949       C  0.62072038  0.16071423  0.15739729    -0.28900
C1950       C  0.61401651  0.15547960  0.11489791     0.44000
C1951       C  0.57580637  0.17341245  0.10633254     0.05200
O1952       O  0.59682997  0.19122952  0.18536006    -0.57400
H1953       H  0.62087040  0.17822456  0.21205235     0.18100
O1954       O  0.61909010  0.14336344  0.09149931    -0.64100
H1955       H  0.59437948  0.15562072  0.06584117     0.16600
C1956       C  0.57399057  0.17898462  0.06445343     0.28800
C1957       C  0.55480979  0.17467854  0.04883136    -0.25000
C1958       C  0.53720932  0.16447862  0.07432918    -0.24300
C1959       C  0.53952961  0.16089371  0.11752619     0.40300
C1960       C  0.55865842  0.16531518  0.13306243    -0.26800
O1961       O  0.59077835  0.18815104  0.03837499    -0.58700
H1962       H  0.55352793  0.17791797  0.01573495     0.15900
O1963       O  0.52303565  0.15226854  0.14445766    -0.60100
H1964       H  0.55969850  0.16094782  0.16542000     0.14400
H1965       H  0.63205116  0.15303389  0.07702130     0.46200
H1966       H  0.58849423  0.17779906  0.01637537     0.41600
H1967       H  0.51951072  0.13779786  0.14795492     0.45100
H1968       H  0.60733085  0.20568380  0.17966396     0.36500
C1969       C  0.44596695  0.14155049  0.80508131    -0.27700
C1970       C  0.43652105  0.12162573  0.78851874     0.01900
C1971       C  0.42858565  0.10485218  0.81662515     0.30000
C1972       C  0.43145286  0.10815783  0.86062212    -0.19500
C1973       C  0.44250852  0.12813906  0.87704534    -0.28900
C1974       C  0.44901405  0.14488955  0.84899836     0.44000
C1975       C  0.43796523  0.11863058  0.74240844     0.05200
O1976       O  0.41926213  0.08520866  0.80120002    -0.57400
H1977       H  0.42633687  0.09509809  0.88160664     0.18100
O1978       O  0.45936481  0.16462684  0.86396724    -0.64100
H1979       H  0.45213133  0.15457863  0.78374744     0.16600
C1980       C  0.42695390  0.12289462  0.71199173     0.28800
C1981       C  0.42970318  0.12087925  0.66845701    -0.25000
C1982       C  0.44369235  0.11496338  0.65456250    -0.24300
C1983       C  0.45471351  0.11075703  0.68553205     0.40300
C1984       C  0.45163069  0.11242943  0.72882326    -0.26800
O1985       O  0.41329077  0.12874303  0.72453688    -0.58700
H1986       H  0.42105456  0.12424097  0.64556074     0.15900
O1987       O  0.46895078  0.10547980  0.67408143    -0.60100
H1988       H  0.46042501  0.10941400  0.75203519     0.14400
H1989       H  0.44865074  0.16722735  0.87527954     0.46200
H1990       H  0.42090150  0.14391088  0.72280915     0.41600
H1991       H  0.48205115  0.11863624  0.67188817     0.45100
H1992       H  0.40524777  0.08194224  0.79312233     0.36500
C1993       C  0.44775587  0.10954460  0.22875996    -0.27700
C1994       C  0.43861861  0.12060394  0.24302404     0.01900
C1995       C  0.43237022  0.13021734  0.21300608     0.30000
C1996       C  0.43565589  0.12897891  0.16942331    -0.19500
C1997       C  0.44541275  0.11838679  0.15499715    -0.28900
C1998       C  0.45133192  0.10849654  0.18547879     0.44000
C1999       C  0.43788018  0.12369248  0.28943017     0.05200
O2000       O  0.42348543  0.14125796  0.22603864    -0.57400
H2001       H  0.43098764  0.13677049  0.14701543     0.18100
O2002       O  0.46087554  0.09790936  0.17362434    -0.64100
H2003       H  0.45298372  0.10236884  0.25152306     0.16600
C2004       C  0.42829464  0.10694340  0.31752874     0.28800
C2005       C  0.43097995  0.11013172  0.36160344    -0.25000
C2006       C  0.44365261  0.12987102  0.37817659    -0.24300
C2007       C  0.45222077  0.14671821  0.35005619     0.40300
C2008       C  0.44924931  0.14354447  0.30614502    -0.26800
O2009       O  0.41661165  0.08739743  0.30207400    -0.58700
H2010       H  0.42419769  0.09697888  0.38261260     0.15900
O2011       O  0.46430022  0.16629661  0.36497361    -0.60100
H2012       H  0.45681972  0.15656592  0.28493358     0.14400
H2013       H  0.47571178  0.10772029  0.17726863     0.46200
H2014       H  0.42510263  0.08088724  0.30570022     0.41600
H2015       H  0.45466900  0.17112509  0.37219441     0.45100
H2016       H  0.40861174  0.13123304  0.22711964     0.36500
C2017       C  0.26234747  0.77819009  0.97942922    -0.27700
C2018       C  0.24670503  0.77894643  0.95698910     0.01900
C2019       C  0.24943116  0.79811149  0.94479923     0.30000
C2020       C  0.26750963  0.81615745  0.95563110    -0.19500
C2021       C  0.28320161  0.81545148  0.97841596    -0.28900
C2022       C  0.28038033  0.79613415  0.99031548     0.44000
C2023       C  0.22737146  0.75960276  0.94817713     0.05200
O2024       O  0.23454911  0.79936738  0.92221691    -0.57400
H2025       H  0.26928968  0.83072953  0.94589298     0.18100
O2026       O  0.29494453  0.79452708  0.01336409    -0.64100
H2027       H  0.26036299  0.76357332  0.98950349     0.16600
C2028       C  0.22748638  0.74327360  0.92685706     0.28800
C2029       C  0.20932438  0.72452627  0.92206788    -0.25000
C2030       C  0.19069811  0.72170300  0.93788788    -0.24300
C2031       C  0.19059440  0.73819725  0.95880170     0.40300
C2032       C  0.20880688  0.75693845  0.96364274    -0.26800
O2033       O  0.24530208  0.74547552  0.91062280    -0.58700
H2034       H  0.20980858  0.71222237  0.90542535     0.15900
O2035       O  0.17289452  0.73610344  0.97542609    -0.60100
H2036       H  0.20852804  0.76927748  0.98060470     0.14400
H2037       H  0.29136117  0.79479846  0.04359455     0.46200
H2038       H  0.24711396  0.75237254  0.88278275     0.41600
H2039       H  0.17184930  0.73040440  0.00436202     0.45100
H2040       H  0.23688102  0.79724651  0.89207899     0.36500
C2041       C  0.36943434  0.98038586  0.99397102    -0.27700
C2042       C  0.38931821  0.99182981  0.01056232     0.01900
C2043       C  0.39911968  0.98158956  0.02666844     0.30000
C2044       C  0.38951943  0.96028247  0.02392458    -0.19500
C2045       C  0.37009042  0.94877435  0.00515133    -0.28900
C2046       C  0.35981318  0.95896994  0.99098827     0.44000
C2047       C  0.40031860  0.01446707  0.00912032     0.05200
O2048       O  0.41803176  0.99235106  0.04557886    -0.57400
H2049       H  0.39755189  0.95276720  0.03577236     0.18100
O2050       O  0.34082245  0.94832274  0.97250387    -0.64100
H2051       H  0.36171233  0.98813645  0.98170454     0.16600
C2052       C  0.41886010  0.02523877  0.98671767     0.28800
C2053       C  0.43033211  0.04654324  0.98915582    -0.25000
C2054       C  0.42339594  0.05755720  0.01293651    -0.24300
C2055       C  0.40426428  0.04688414  0.03343770     0.40300
C2056       C  0.39287930  0.02541972  0.03152497    -0.26800
O2057       O  0.42613018  0.01502435  0.96303707    -0.58700
H2058       H  0.44486580  0.05449515  0.97271674     0.15900
O2059       O  0.39730453  0.05711932  0.05794318    -0.60100
H2060       H  0.37860415  0.01728318  0.04880537     0.14400
H2061       H  0.34342130  0.94864033  0.94151989     0.46200
H2062       H  0.41880639  0.01213097  0.93542163     0.41600
H2063       H  0.38728736  0.05843500  0.03974144     0.45100
H2064       H  0.42764543  0.99124072  0.02586352     0.36500
C2065       C  0.44339284  0.90515503  0.08719590    -0.27700
C2066       C  0.44002994  0.89667356  0.12812201     0.01900
C2067       C  0.42012518  0.88698289  0.14502673     0.30000
C2068       C  0.40378302  0.88491215  0.12029183    -0.19500
C2069       C  0.40683279  0.89228876  0.07826613    -0.28900
C2070       C  0.42706272  0.90318977  0.06238682     0.44000
C2071       C  0.45679741  0.89612853  0.15154253     0.05200
O2072       O  0.41630215  0.87853091  0.18497518    -0.57400
H2073       H  0.38852635  0.87672590  0.13359970     0.18100
O2074       O  0.43099170  0.91086350  0.02177871    -0.64100
H2075       H  0.45867276  0.91278661  0.07393008     0.16600
C2076       C  0.46607948  0.88556509  0.13459877     0.28800
C2077       C  0.47949271  0.88227691  0.15963811    -0.25000
C2078       C  0.48407092  0.88952707  0.20177543    -0.24300
C2079       C  0.47576412  0.90131230  0.21764988     0.40300
C2080       C  0.46213894  0.90436558  0.19266709    -0.26800
O2081       O  0.46085672  0.87695682  0.09481554    -0.58700
H2082       H  0.48574121  0.87334884  0.14638235     0.15900
O2083       O  0.47970337  0.90876789  0.25844803    -0.60100
H2084       H  0.45516886  0.91262112  0.20598168     0.14400
H2085       H  0.43386859  0.92515437  0.02452752     0.46200
H2086       H  0.47216956  0.88650936  0.07600556     0.41600
H2087       H  0.49124509  0.92303505  0.25593654     0.45100
H2088       H  0.41357672  0.86435845  0.18084880     0.36500
C2089       C  0.39815749  0.84164089  0.86887227    -0.27700
C2090       C  0.40495892  0.83066672  0.89337760     0.01900
C2091       C  0.39687971  0.82412615  0.93443158     0.30000
C2092       C  0.38376894  0.83024716  0.95182798    -0.19500
C2093       C  0.37866468  0.84307157  0.92886430    -0.28900
C2094       C  0.38517829  0.84789349  0.88625035     0.44000
C2095       C  0.42319253  0.82989500  0.87884851     0.05200
O2096       O  0.40289645  0.81304240  0.95894132    -0.57400
H2097       H  0.37887068  0.82620133  0.98451453     0.18100
O2098       O  0.37963227  0.85941039  0.86183463    -0.64100
H2099       H  0.40424241  0.84689186  0.83728269     0.16600
C2100       C  0.42432856  0.82338985  0.83750082     0.28800
C2101       C  0.44335892  0.82811301  0.82059124    -0.25000
C2102       C  0.46144194  0.83970033  0.84421670    -0.24300
C2103       C  0.45991559  0.84422282  0.88718746     0.40300
C2104       C  0.44094049  0.83938499  0.90403356    -0.26800
O2105       O  0.40701023  0.81310257  0.81297628    -0.58700
H2106       H  0.44406639  0.82415011  0.78776913     0.15900
O2107       O  0.47702879  0.85478053  0.91212737    -0.60100
H2108       H  0.44038912  0.84456138  0.93589142     0.14400
H2109       H  0.39184746  0.87335347  0.86119185     0.46200
H2110       H  0.40830712  0.82285359  0.79036046     0.41600
H2111       H  0.47995847  0.84424401  0.92337242     0.45100
H2112       H  0.39392138  0.79859909  0.95005517     0.36500
C2113       C  0.26146828  0.77642906  0.49146892    -0.27700
C2114       C  0.24615474  0.77702753  0.46742563     0.01900
C2115       C  0.24910116  0.79601840  0.45328759     0.30000
C2116       C  0.26730681  0.81407226  0.46300500    -0.19500
C2117       C  0.28285041  0.81345649  0.48645189    -0.28900
C2118       C  0.27971585  0.79439447  0.50091714     0.44000
C2119       C  0.22708325  0.75770109  0.45793243     0.05200
O2120       O  0.23437945  0.79706039  0.42961471    -0.57400
H2121       H  0.26941544  0.82853646  0.45148694     0.18100
O2122       O  0.29401618  0.79321228  0.52584125    -0.64100
H2123       H  0.25917986  0.76194528  0.50331881     0.16600
C2124       C  0.22761489  0.74144648  0.43732149     0.28800
C2125       C  0.20946065  0.72301435  0.42997593    -0.25000
C2126       C  0.19050185  0.72048113  0.44264785    -0.24300
C2127       C  0.19008335  0.73677619  0.46366407     0.40300
C2128       C  0.20826620  0.75521668  0.47090580    -0.26800
O2129       O  0.24580463  0.74348813  0.42397217    -0.58700
H2130       H  0.21023321  0.71078960  0.41367456     0.15900
O2131       O  0.17205750  0.73476902  0.47794469    -0.60100
H2132       H  0.20771088  0.76750013  0.48748368     0.14400
H2133       H  0.30134276  0.78876040  0.50639415     0.46200
H2134       H  0.24803652  0.74956872  0.39512375     0.41600
H2135       H  0.17147541  0.73126473  0.50849959     0.45100
H2136       H  0.23722109  0.79514874  0.39970197     0.36500
C2137       C  0.39101836  0.02272434  0.52020966    -0.27700
C2138       C  0.39944435  0.01235812  0.49888310     0.01900
C2139       C  0.41823544  0.02379550  0.47764156     0.30000
C2140       C  0.42892371  0.04517020  0.48028885    -0.19500
C2141       C  0.42117494  0.05557185  0.50380435    -0.28900
C2142       C  0.40170852  0.04420728  0.52263972     0.44000
C2143       C  0.38907928  0.98966769  0.50020183     0.05200
O2144       O  0.42610299  0.01415015  0.45377883    -0.57400
H2145       H  0.44364265  0.05363774  0.46470534     0.18100
O2146       O  0.39369604  0.05377337  0.54614621    -0.64100
H2147       H  0.37649865  0.01411163  0.53644428     0.16600
C2148       C  0.39952498  0.97986087  0.51532802     0.28800
C2149       C  0.39036896  0.95858893  0.51289741    -0.25000
C2150       C  0.37050892  0.94655210  0.49643842    -0.24300
C2151       C  0.35957841  0.95626789  0.48345173     0.40300
C2152       C  0.36888740  0.97768771  0.48548726    -0.26800
O2153       O  0.41882363  0.99097260  0.53225163    -0.58700
H2154       H  0.39895159  0.95148382  0.52377483     0.15900
O2155       O  0.34013243  0.94512211  0.46727658    -0.60100
H2156       H  0.36057364  0.98500583  0.47421198     0.14400
H2157       H  0.38480128  0.05593490  0.52609162     0.46200
H2158       H  0.41673286  0.99209451  0.56304217     0.41600
H2159       H  0.34192539  0.94418661  0.43626606     0.45100
H2160       H  0.43886803  0.01688385  0.46845520     0.36500
C2161       C  0.42373656  0.89070406  0.63954366    -0.27700
C2162       C  0.44272410  0.89820300  0.61949819     0.01900
C2163       C  0.44448616  0.90323300  0.57596798     0.30000
C2164       C  0.42723045  0.89989639  0.55280362    -0.19500
C2165       C  0.40793434  0.89131097  0.57231144    -0.28900
C2166       C  0.40642560  0.88714876  0.61640954     0.44000
C2167       C  0.45962716  0.89802016  0.64311456     0.05200
O2168       O  0.46281862  0.91058496  0.55535944    -0.57400
H2169       H  0.42882138  0.90314537  0.51900229     0.18100
O2170       O  0.38807011  0.87933391  0.63720441    -0.64100
H2171       H  0.42202469  0.88648850  0.67286834     0.16600
C2172       C  0.46585655  0.90712813  0.68354280     0.28800
C2173       C  0.47900822  0.90333172  0.70849176    -0.25000
C2174       C  0.48602952  0.89036398  0.69373620    -0.24300
C2175       C  0.48107443  0.88271401  0.65167330     0.40300
C2176       C  0.46784408  0.88638909  0.62709386    -0.26800
O2177       O  0.45906537  0.91966328  0.69887951    -0.58700
H2178       H  0.48298144  0.90988644  0.74012757     0.15900
O2179       O  0.48821872  0.87076951  0.63474909    -0.60100
H2180       H  0.46318893  0.87923045  0.59607077     0.14400
H2181       H  0.38295820  0.86445151  0.64008420     0.46200
H2182       H  0.44923300  0.91175185  0.72177964     0.41600
H2183       H  0.50184962  0.88057183  0.62290837     0.45100
H2184       H  0.46997534  0.92564007  0.55941577     0.36500
C2185       C  0.34685513  0.89940627  0.78184918    -0.27700
C2186       C  0.32696101  0.88672500  0.76655246     0.01900
C2187       C  0.31079582  0.87669150  0.79564700     0.30000
C2188       C  0.31481395  0.87870995  0.83945807    -0.19500
C2189       C  0.33494528  0.89058732  0.85497536    -0.28900
C2190       C  0.35097225  0.90136431  0.82549678     0.44000
C2191       C  0.32380186  0.88249215  0.72039506     0.05200
O2192       O  0.29112523  0.86432121  0.78154611    -0.57400
H2193       H  0.30220935  0.87031068  0.86120713     0.18100
O2194       O  0.37079872  0.91369280  0.83879766    -0.64100
H2195       H  0.35946070  0.90711725  0.75977474     0.16600
C2196       C  0.32982100  0.89843500  0.69066077     0.28800
C2197       C  0.32921624  0.89431353  0.64707058    -0.25000
C2198       C  0.32327375  0.87448297  0.63262295    -0.24300
C2199       C  0.31653723  0.85840671  0.66248946     0.40300
C2200       C  0.31675838  0.86248530  0.70591251    -0.26800
O2201       O  0.33650744  0.91809802  0.70402546    -0.58700
H2202       H  0.33447808  0.90689371  0.62473355     0.15900
O2203       O  0.31038847  0.83876977  0.64979421    -0.60100
H2204       H  0.31229887  0.85011880  0.72852780     0.14400
H2205       H  0.37743628  0.90531003  0.83534524     0.46200
H2206       H  0.35159206  0.92542693  0.70072256     0.41600
H2207       H  0.29562680  0.83255887  0.64305861     0.45100
H2208       H  0.28613675  0.87379205  0.77379105     0.36500
C2209       C  0.32093140  0.89326611  0.19370208    -0.27700
C2210       C  0.31685868  0.87682124  0.22071790     0.01900
C2211       C  0.31156555  0.85771854  0.20273704     0.30000
C2212       C  0.31208873  0.85575615  0.15861026    -0.19500
C2213       C  0.31794276  0.87267392  0.13163730    -0.28900
C2214       C  0.32154551  0.89134099  0.14945289     0.44000
C2215       C  0.32080681  0.88032603  0.26707111     0.05200
O2216       O  0.30712799  0.84119536  0.22807835    -0.57400
H2217       H  0.30892398  0.84116129  0.14560809     0.18100
O2218       O  0.32696347  0.90815763  0.12432181    -0.64100
H2219       H  0.32471198  0.90797179  0.20710663     0.16600
C2220       C  0.34041274  0.89490264  0.28188253     0.28800
C2221       C  0.34489276  0.89648467  0.32535837    -0.25000
C2222       C  0.33002828  0.88378977  0.35502859    -0.24300
C2223       C  0.31012957  0.86965474  0.34029193     0.30700
C2224       C  0.30571570  0.86795284  0.29659935    -0.26800
O2225       O  0.35574295  0.90668771  0.25380486    -0.58700
H2226       H  0.36026232  0.90746559  0.33573557     0.15900
O2227       O  0.29525114  0.85653876  0.36786034    -0.60100
H2228       H  0.29059200  0.85659796  0.28563450     0.14400
H2229       H  0.34212353  0.91552490  0.12326084     0.46200
H2230       H  0.35690811  0.92036551  0.25457034     0.41600
H2231       H  0.28694540  0.86303142  0.37405156     0.45100
H2232       H  0.32047850  0.84214068  0.23382580     0.36500
C2233       C  0.44045628  0.83542268  0.40667552    -0.27700
C2234       C  0.42292013  0.82583650  0.38090033     0.01900
C2235       C  0.42450452  0.81961104  0.33956045     0.30000
C2236       C  0.44374921  0.82497404  0.32304762    -0.19500
C2237       C  0.46162115  0.83678797  0.34718983    -0.28900
C2238       C  0.45971987  0.84104222  0.39009394     0.44000
C2239       C  0.40467525  0.82688803  0.39408889     0.05200
O2240       O  0.40758319  0.80989667  0.31381790    -0.57400
H2241       H  0.44478295  0.82145529  0.29005336     0.18100
O2242       O  0.47670260  0.85165148  0.41541274    -0.64100
H2243       H  0.43954941  0.84036168  0.43854043     0.16600
C2244       C  0.39547970  0.81970320  0.43403661     0.28800
C2245       C  0.38215193  0.82586781  0.45032122    -0.25000
C2246       C  0.37821803  0.83961451  0.42757898    -0.24300
C2247       C  0.38601571  0.84519312  0.38585665     0.40300
C2248       C  0.39907904  0.83883311  0.36958514    -0.26800
O2249       O  0.40000649  0.80724771  0.45786908    -0.58700
H2250       H  0.37614260  0.82105783  0.48212120     0.15900
O2251       O  0.38232821  0.85816499  0.36178363    -0.60100
H2252       H  0.40614486  0.84463879  0.33889667     0.14400
H2253       H  0.47897439  0.86576249  0.41727919     0.46200
H2254       H  0.40890123  0.81597037  0.48135911     0.41600
H2255       H  0.36866997  0.84934223  0.34880163     0.45100
H2256       H  0.40090712  0.79523682  0.32190738     0.36500
loop_ 
_geom_bond_atom_site_label_1 
_geom_bond_atom_site_label_2 
_geom_bond_distance 
_geom_bond_site_symmetry_2 
_ccdc_geom_bond_type 
Fe1          O17   2.058       .  S
Fe1           O7   2.081       .  S
Fe1          O14   2.084       .  S
Fe1           O6   2.061       .  S
Fe1          O12   1.964       .  S
Fe2           O5   2.050       .  S
Fe2           O9   2.080       .  S
Fe2          O13   2.048       .  S
Fe2          O18   2.083       .  S
Fe2          O12   1.950       .  S
Fe3          O21   2.079       .  S
Fe3           O8   2.050       .  S
Fe3          O15   2.044       .  S
Fe3           O4   2.072       .  S
Fe3          O12   1.958       .  S
O4           C11   1.271       .  A
O5           C19   1.266       .  A
O6           C11   1.270       .  A
O7           C10   1.272       .  A
O8           C20   1.268       .  A
O9           C22   1.275       .  A
C10          O15   1.267       .  A
C10        C2117   1.478       .  S
C11        C2198   1.479       .  S
O13          C16   1.266       .  A
O14          C16   1.270       .  A
C16        C2150   1.483       .  S
O17          C22   1.270       .  A
O18          C20   1.274       .  A
C19          O21   1.270       .  A
C19        C2246   1.487       .  S
C20        C2165   1.484       .  S
C22        C2222   1.485       .  S
Fe23         O39   2.066       .  S
Fe23         O29   2.086       .  S
Fe23         O36   2.088       .  S
Fe23         O28   2.070   1_556  S
Fe23         O34   1.972       .  S
Fe24         O27   2.051       .  S
Fe24         O31   2.065       .  S
Fe24         O35   2.044       .  S
Fe24         O40   2.074   1_556  S
Fe24         O34   1.957       .  S
Fe25         O43   2.075   1_554  S
Fe25         O30   2.061       .  S
Fe25         O37   2.051   1_554  S
Fe25         O26   2.064       .  S
Fe25         O34   1.962   1_554  S
O26          C33   1.270       .  A
O27          C41   1.267       .  A
O28          C33   1.271       .  A
O29          C32   1.273       .  A
O30          C42   1.270       .  A
O31          C44   1.269       .  A
C32          O37   1.268       .  A
C32        C2021   1.487       .  S
C33        C2213   1.482       .  S
O35          C38   1.267       .  A
O36          C38   1.272       .  A
C38        C2045   1.481   1_556  S
O39          C44   1.270       .  A
O40          C42   1.270       .  A
C41          O43   1.270       .  A
C41        C2093   1.483       .  S
C42        C2069   1.489       .  S
C44        C2189   1.487       .  S
Fe45         O61   2.072       .  S
Fe45         O51   2.087       .  S
Fe45         O58   2.089       .  S
Fe45         O50   2.073   1_554  S
Fe45         O56   1.956       .  S
Fe46         O49   2.045       .  S
Fe46         O53   2.074       .  S
Fe46         O57   2.044       .  S
Fe46         O62   2.084   1_554  S
Fe46         O56   1.940       .  S
Fe47         O65   2.090   1_556  S
Fe47         O52   2.052       .  S
Fe47         O59   2.042   1_556  S
Fe47         O48   2.077       .  S
Fe47         O56   1.950   1_556  S
O48          C55   1.271       .  A
O49          C63   1.266       .  A
O50          C55   1.271       .  A
O51          C54   1.275       .  A
O52          C64   1.269       .  A
O53          C66   1.271       .  A
C54          O59   1.268       .  A
C54        C1901   1.479       .  S
C55        C1973   1.481       .  S
O57          C60   1.268       .  A
O58          C60   1.273       .  A
C60        C2054   1.476       .  S
O61          C66   1.272       .  A
O62          C64   1.272       .  A
C63          O65   1.273       .  A
C63        C1958   1.485       .  S
C64        C1925   1.489       .  S
C66        C1997   1.493       .  S
Fe67         O83   2.061       .  S
Fe67         O73   2.096       .  S
Fe67         O80   2.100       .  S
Fe67         O72   2.067       .  S
Fe67         O78   1.956       .  S
Fe68         O71   2.044       .  S
Fe68         O75   2.081       .  S
Fe68         O79   2.040       .  S
Fe68         O84   2.086       .  S
Fe68         O78   1.944       .  S
Fe69         O87   2.087       .  S
Fe69         O74   2.056       .  S
Fe69         O81   2.049       .  S
Fe69         O70   2.075       .  S
Fe69         O78   1.952       .  S
O70          C77   1.272       .  A
O71          C85   1.266       .  A
O72          C77   1.271       .  A
O73          C76   1.275       .  A
O74          C86   1.268       .  A
O75          C88   1.273       .  A
C76          O81   1.268       .  A
C76        C1829   1.479       .  S
C77        C2006   1.481       .  S
O79          C82   1.265       .  A
O80          C82   1.274       .  A
C82        C2141   1.481       .  S
O83          C88   1.270       .  A
O84          C86   1.273       .  A
C85          O87   1.273       .  A
C85        C1877   1.483       .  S
C86        C1853   1.489       .  S
C88        C1982   1.490       .  S
Fe89        O105   2.063       .  S
Fe89         O95   2.090       .  S
Fe89        O102   2.084       .  S
Fe89         O94   2.065       .  S
Fe89        O100   1.972       .  S
Fe90         O93   2.056       .  S
Fe90         O97   2.080       .  S
Fe90        O101   2.053       .  S
Fe90        O106   2.093       .  S
Fe90        O100   1.959       .  S
Fe91        O109   2.075       .  S
Fe91         O96   2.049       .  S
Fe91        O103   2.049       .  S
Fe91         O92   2.073       .  S
Fe91        O100   1.963       .  S
O92          C99   1.271       .  A
O93         C107   1.267       .  A
O94          C99   1.271       .  A
O95          C98   1.272       .  A
O96         C108   1.268       .  A
O97         C110   1.276       .  A
C98         O103   1.267       .  A
C98        C1733   1.489       .  S
C99        C1805   1.483       .  S
O101        C104   1.267       .  A
O102        C104   1.270       .  A
C104       C1757   1.493       .  S
O105        C110   1.272       .  A
O106        C108   1.275       .  A
C107        O109   1.270       .  A
C107       C1949   1.484       .  S
C108       C1862   1.493       .  S
C110       C1790   1.489       .  S
Fe111       O127   2.064       .  S
Fe111       O117   2.086       .  S
Fe111       O124   2.090       .  S
Fe111       O116   2.072       .  S
Fe111       O122   1.964       .  S
Fe112       O115   2.053       .  S
Fe112       O119   2.079       .  S
Fe112       O123   2.050       .  S
Fe112       O128   2.080       .  S
Fe112       O122   1.956       .  S
Fe113       O131   2.080       .  S
Fe113       O118   2.055       .  S
Fe113       O125   2.057       .  S
Fe113       O114   2.066       .  S
Fe113       O122   1.957       .  S
O114        C121   1.271       .  A
O115        C129   1.268       .  A
O116        C121   1.271       .  A
O117        C120   1.273       .  A
O118        C130   1.269       .  A
O119        C132   1.273       .  A
C120        O125   1.270       .  A
C120       C1694   1.482       .  S
C121       C1781   1.488       .  S
O123        C126   1.266       .  A
O124        C126   1.272       .  A
C126       C1709   1.481       .  S
O127        C132   1.271       .  A
O128        C130   1.272       .  A
C129        O131   1.271       .  A
C129       C1886   1.486       .  S
C130       C1934   1.488       .  S
C132       C1814   1.487       .  S
Fe133       O149   2.076       .  S
Fe133       O139   2.090       .  S
Fe133       O146   2.093       .  S
Fe133       O138   2.068       .  S
Fe133       O144   1.981       .  S
Fe134       O137   2.051       .  S
Fe134       O141   2.064       .  S
Fe134       O145   2.043       .  S
Fe134       O150   2.076       .  S
Fe134       O144   1.961       .  S
Fe135       O153   2.072       .  S
Fe135       O140   2.059       .  S
Fe135       O147   2.053       .  S
Fe135       O136   2.055       .  S
Fe135       O144   1.971       .  S
O136        C143   1.268       .  A
O137        C151   1.266       .  A
O138        C143   1.269       .  A
O139        C142   1.274       .  A
O140        C152   1.270       .  A
O141        C154   1.271       .  A
C142        O147   1.269       .  A
C142       C1622   1.492       .  S
C143       C1661   1.481       .  S
O145        C148   1.265       .  A
O146        C148   1.272       .  A
C148       C1766   1.489       .  S
O149        C154   1.273       .  A
O150        C152   1.271       .  A
C151        O153   1.268       .  A
C151       C2237   1.482       .  S
C152       C2078   1.489       .  S
C154       C1646   1.490       .  S
Fe155       O171   2.053       .  S
Fe155       O161   2.094       .  S
Fe155       O168   2.097       .  S
Fe155       O160   2.062       .  S
Fe155       O166   1.964       .  S
Fe156       O159   2.046       .  S
Fe156       O163   2.075       .  S
Fe156       O167   2.036       .  S
Fe156       O172   2.083       .  S
Fe156       O166   1.954       .  S
Fe157       O175   2.086       .  S
Fe157       O162   2.047       .  S
Fe157       O169   2.047       .  S
Fe157       O158   2.078       .  S
Fe157       O166   1.957       .  S
O158        C165   1.272       .  A
O159        C173   1.265       .  A
O160        C165   1.269       .  A
O161        C164   1.275       .  A
O162        C174   1.267       .  A
O163        C176   1.273       .  A
C164        O169   1.267       .  A
C164       C1589   1.484       .  S
C165       C1637   1.484       .  S
O167        C170   1.264       .  A
O168        C170   1.273       .  A
C170       C1718   1.481       .  S
O171        C176   1.269       .  A
O172        C174   1.273       .  A
C173        O175   1.272       .  A
C173       C2102   1.484       .  S
C174       C2174   1.487       .  S
C176       C1670   1.482       .  S
Fe177       O193   2.063       .  S
Fe177       O183   2.088       .  S
Fe177       O190   2.083       .  S
Fe177       O182   2.057       .  S
Fe177       O188   1.960       .  S
Fe178       O181   2.055       .  S
Fe178       O185   2.072       .  S
Fe178       O189   2.046       .  S
Fe178       O194   2.089       .  S
Fe178       O188   1.946       .  S
Fe179       O197   2.083       .  S
Fe179       O184   2.050       .  S
Fe179       O191   2.050       .  S
Fe179       O180   2.079       .  S
Fe179       O188   1.952       .  S
O180        C187   1.272       .  A
O181        C195   1.266       .  A
O182        C187   1.268       .  A
O183        C186   1.274       .  A
O184        C196   1.271       .  A
O185        C198   1.275       .  A
C186        O191   1.269       .  A
C186       C1445   1.481       .  S
C187       C1541   1.483       .  S
O189        C192   1.266       .  A
O190        C192   1.270       .  A
C192       C1469   1.473       .  S
O193        C198   1.272       .  A
O194        C196   1.276       .  A
C195        O197   1.269       .  A
C195       C1493   1.490       .  S
C196       C1565   1.485       .  S
C198       C1517   1.484       .  S
Fe199       O215   2.066       .  S
Fe199       O205   2.093       .  S
Fe199       O212   2.093       .  S
Fe199       O204   2.061       .  S
Fe199       O210   1.956       .  S
Fe200       O203   2.049       .  S
Fe200       O207   2.066       .  S
Fe200       O211   2.039       .  S
Fe200       O216   2.086       .  S
Fe200       O210   1.945       .  S
Fe201       O219   2.087       .  S
Fe201       O206   2.048       .  S
Fe201       O213   2.048       .  S
Fe201       O202   2.080       .  S
Fe201       O210   1.947       .  S
O202        C209   1.273       .  A
O203        C217   1.266       .  A
O204        C209   1.269       .  A
O205        C208   1.276       .  A
O206        C218   1.269       .  A
O207        C220   1.272       .  A
C208        O213   1.268       .  A
C208       C1349   1.481       .  S
C209       C1526   1.485       .  S
O211        C214   1.266       .  A
O212        C214   1.273       .  A
C214       C1373   1.471       .  S
O215        C220   1.271       .  A
O216        C218   1.273       .  A
C217        O219   1.271       .  A
C217       C1397   1.489       .  S
C218       C1430   1.486       .  S
C220       C1550   1.484       .  S
Fe221       O237   2.064       .  S
Fe221       O227   2.078       .  S
Fe221       O234   2.075       .  S
Fe221       O226   2.066       .  S
Fe221       O232   1.958       .  S
Fe222       O225   2.051       .  S
Fe222       O229   2.071   1_554  S
Fe222       O233   2.048       .  S
Fe222       O238   2.085       .  S
Fe222       O232   1.950       .  S
Fe223       O241   2.080       .  S
Fe223       O228   2.054       .  S
Fe223       O235   2.053       .  S
Fe223       O224   2.074       .  S
Fe223       O232   1.957       .  S
O224        C231   1.270       .  A
O225        C239   1.265       .  A
O226        C231   1.270       .  A
O227        C230   1.272       .  A
O228        C240   1.272       .  A
O229        C242   1.272       .  A
C230        O235   1.270       .  A
C230       C1910   1.483       .  S
C231       C1325   1.485       .  S
O233        C236   1.266       .  A
O234        C236   1.269       .  A
C236       C1277   1.475       .  S
O237        C242   1.272   1_554  A
O238        C240   1.275       .  A
C239        O241   1.269       .  A
C239       C1406   1.486       .  S
C240       C1574   1.489       .  S
C242       C1310   1.481       .  S
Fe243       O259   2.070       .  S
Fe243       O249   2.084       .  S
Fe243       O256   2.080       .  S
Fe243       O248   2.067       .  S
Fe243       O254   1.965       .  S
Fe244       O247   2.049       .  S
Fe244       O251   2.071       .  S
Fe244       O255   2.045       .  S
Fe244       O260   2.084       .  S
Fe244       O254   1.954       .  S
Fe245       O263   2.084       .  S
Fe245       O250   2.053       .  S
Fe245       O257   2.057       .  S
Fe245       O246   2.069       .  S
Fe245       O254   1.959       .  S
O246        C253   1.271       .  A
O247        C261   1.266       .  A
O248        C253   1.270       .  A
O249        C252   1.273       .  A
O250        C262   1.269       .  A
O251        C264   1.272       .  A
C252        O257   1.269       .  A
C252       C1838   1.492       .  S
C253       C1301   1.483       .  S
O255        C258   1.266       .  A
O256        C258   1.270       .  A
C258       C1253   1.474       .  S
O259        C264   1.273       .  A
O260        C262   1.273       .  A
C261        O263   1.270       .  A
C261       C1502   1.487       .  S
C262       C1421   1.489       .  S
C264       C1334   1.487       .  S
Fe265       O281   2.058       .  S
Fe265       O271   2.085       .  S
Fe265       O278   2.086       .  S
Fe265       O270   2.055       .  S
Fe265       O276   1.952       .  S
Fe266       O269   2.048       .  S
Fe266       O273   2.079       .  S
Fe266       O277   2.044       .  S
Fe266       O282   2.082       .  S
Fe266       O276   1.939       .  S
Fe267       O285   2.094       .  S
Fe267       O272   2.050       .  S
Fe267       O279   2.051       .  S
Fe267       O268   2.082       .  S
Fe267       O276   1.947       .  S
O268        C275   1.274       .  A
O269        C283   1.268       .  A
O270        C275   1.269       .  A
O271        C274   1.273       .  A
O272        C284   1.267       .  A
O273        C286   1.274       .  A
C274        O279   1.268       .  A
C274       C1613   1.481       .  S
C275       C1157   1.477       .  S
O277        C280   1.266       .  A
O278        C280   1.271       .  A
C280       C1478   1.487       .  S
O281        C286   1.271       .  A
O282        C284   1.272       .  A
C283        O285   1.276       .  A
C283       C1238   1.489       .  S
C284       C1214   1.480       .  S
C286       C1181   1.488       .  S
Fe287       O303   2.065       .  S
Fe287       O293   2.091       .  S
Fe287       O300   2.086       .  S
Fe287       O292   2.062       .  S
Fe287       O298   1.957       .  S
Fe288       O291   2.053       .  S
Fe288       O295   2.068       .  S
Fe288       O299   2.047       .  S
Fe288       O304   2.070       .  S
Fe288       O298   1.945       .  S
Fe289       O307   2.085       .  S
Fe289       O294   2.056       .  S
Fe289       O301   2.052       .  S
Fe289       O290   2.074       .  S
Fe289       O298   1.955       .  S
O290        C297   1.271       .  A
O291        C305   1.268       .  A
O292        C297   1.269       .  A
O293        C296   1.275       .  A
O294        C306   1.269       .  A
O295        C308   1.272       .  A
C296        O301   1.270       .  A
C296       C1598   1.486       .  S
C297       C1190   1.483       .  S
O299        C302   1.267       .  A
O300        C302   1.272       .  A
C302       C1382   1.489       .  S
O303        C308   1.272       .  A
O304        C306   1.271       .  A
C305        O307   1.272       .  A
C305       C1142   1.487       .  S
C306       C1118   1.482       .  S
C308       C1166   1.488       .  S
Fe309       O325   2.063       .  S
Fe309       O315   2.095       .  S
Fe309       O322   2.091       .  S
Fe309       O314   2.063       .  S
Fe309       O320   1.958       .  S
Fe310       O313   2.052       .  S
Fe310       O317   2.074       .  S
Fe310       O321   2.039       .  S
Fe310       O326   2.082       .  S
Fe310       O320   1.946       .  S
Fe311       O329   2.089       .  S
Fe311       O316   2.047       .  S
Fe311       O323   2.052       .  S
Fe311       O312   2.080       .  S
Fe311       O320   1.948       .  S
O312        C319   1.272       .  A
O313        C327   1.266       .  A
O314        C319   1.268       .  A
O315        C318   1.276       .  A
O316        C328   1.269       .  A
O317        C330   1.272       .  A
C318        O323   1.271       .  A
C318       C1046   1.492       .  S
C319       C1070   1.493   1_554  S
O321        C324   1.266       .  A
O322        C324   1.273       .  A
C324       C1286   1.488       .  S
O325        C330   1.271       .  A
O326        C328   1.273       .  A
C327        O329   1.272       .  A
C327       C1229   1.488       .  S
C328       C1109   1.485       .  S
C330       C1094   1.482       .  S
Fe331       O347   2.066       .  S
Fe331       O337   2.091       .  S
Fe331       O344   2.093       .  S
Fe331       O336   2.061       .  S
Fe331       O342   1.954       .  S
Fe332       O335   2.043       .  S
Fe332       O339   2.079       .  S
Fe332       O343   2.035       .  S
Fe332       O348   2.087       .  S
Fe332       O342   1.939       .  S
Fe333       O351   2.095       .  S
Fe333       O338   2.047       .  S
Fe333       O345   2.051       .  S
Fe333       O334   2.085       .  S
Fe333       O342   1.948       .  S
O334        C341   1.273       .  A
O335        C349   1.265       .  A
O336        C341   1.271       .  A
O337        C340   1.274       .  A
O338        C350   1.269       .  A
O339        C352   1.274       .  A
C340        O345   1.269       .  A
C340       C1013   1.480       .  S
C341       C1085   1.490       .  S
O343        C346   1.265       .  A
O344        C346   1.273       .  A
C346       C1262   1.487       .  S
O347        C352   1.272       .  A
O348        C350   1.274       .  A
C349        O351   1.273       .  A
C349       C1133   1.489       .  S
C350       C1205   1.486       .  S
C352       C1061   1.486       .  S
Fe353       O369   2.064       .  S
Fe353       O359   2.091       .  S
Fe353       O366   2.094       .  S
Fe353       O358   2.059       .  S
Fe353       O364   1.961       .  S
Fe354       O357   2.055       .  S
Fe354       O361   2.080       .  S
Fe354       O365   2.047       .  S
Fe354       O370   2.086       .  S
Fe354       O364   1.946       .  S
Fe355       O373   2.088       .  S
Fe355       O360   2.054       .  S
Fe355       O367   2.059       .  S
Fe355       O356   2.087       .  S
Fe355       O364   1.955       .  S
O356        C363   1.274       .  A
O357        C371   1.266       .  A
O358        C363   1.272       .  A
O359        C362   1.272       .  A
O360        C372   1.271       .  A
O361        C374   1.276       .  A
C362        O367   1.268       .  A
C362       C1037   1.476       .  S
C363        C989   1.487       .  S
O365        C368   1.264       .  A
O366        C368   1.271       .  A
C368        C893   1.494       .  S
O369        C374   1.274       .  A
O370        C372   1.275       .  A
C371        O373   1.271       .  A
C371        C917   1.489       .  S
C372        C941   1.490       .  S
C374        C974   1.485       .  S
Fe375       O391   2.067       .  S
Fe375       O381   2.090       .  S
Fe375       O388   2.089       .  S
Fe375       O380   2.061       .  S
Fe375       O386   1.957       .  S
Fe376       O379   2.045       .  S
Fe376       O383   2.076       .  S
Fe376       O387   2.040       .  S
Fe376       O392   2.087       .  S
Fe376       O386   1.944       .  S
Fe377       O395   2.087       .  S
Fe377       O382   2.049       .  S
Fe377       O389   2.051       .  S
Fe377       O378   2.084       .  S
Fe377       O386   1.950       .  S
O378        C385   1.274       .  A
O379        C393   1.266       .  A
O380        C385   1.270       .  A
O381        C384   1.274       .  A
O382        C394   1.269       .  A
O383        C396   1.273       .  A
C384        O389   1.267       .  A
C384       C1022   1.485       .  S
C385        C965   1.488       .  S
O387        C390   1.265       .  A
O388        C390   1.272       .  A
C390        C830   1.480       .  S
O391        C396   1.273       .  A
O392        C394   1.274       .  A
C393        O395   1.272       .  A
C393        C845   1.488       .  S
C394        C869   1.490       .  S
C396        C998   1.488       .  S
Fe397       O413   2.064       .  S
Fe397       O403   2.085       .  S
Fe397       O410   2.091       .  S
Fe397       O402   2.061       .  S
Fe397       O408   1.961       .  S
Fe398       O401   2.058       .  S
Fe398       O405   2.073       .  S
Fe398       O409   2.054       .  S
Fe398       O414   2.086       .  S
Fe398       O408   1.948       .  S
Fe399       O417   2.076       .  S
Fe399       O404   2.056       .  S
Fe399       O411   2.049       .  S
Fe399       O400   2.069       .  S
Fe399       O408   1.960       .  S
O400        C407   1.268       .  A
O401        C415   1.267       .  A
O402        C407   1.268       .  A
O403        C406   1.275       .  A
O404        C416   1.271       .  A
O405        C418   1.272       .  A
C406        O411   1.270       .  A
C406       C2126   1.481       .  S
C407        C797   1.478       .  S
O409        C412   1.270       .  A
O410        C412   1.273       .  A
C412        C749   1.493       .  S
O413        C418   1.269       .  A
O414        C416   1.275       .  A
C415        O417   1.268       .  A
C415        C854   1.486       .  S
C416        C950   1.485       .  S
C418        C773   1.487       .  S
Fe419       O435   2.068       .  S
Fe419       O425   2.086       .  S
Fe419       O432   2.089       .  S
Fe419       O424   2.062       .  S
Fe419       O430   1.965       .  S
Fe420       O423   2.050       .  S
Fe420       O427   2.069   1_556  S
Fe420       O431   2.045       .  S
Fe420       O436   2.084       .  S
Fe420       O430   1.949       .  S
Fe421       O439   2.090       .  S
Fe421       O426   2.053       .  S
Fe421       O433   2.055       .  S
Fe421       O422   2.073       .  S
Fe421       O430   1.959       .  S
O422        C429   1.271       .  A
O423        C437   1.266       .  A
O424        C429   1.269       .  A
O425        C428   1.274       .  A
O426        C438   1.270       .  A
O427        C440   1.272       .  A
C428        O433   1.271       .  A
C428       C2030   1.485       .  S
C429        C782   1.482       .  S
O431        C434   1.266       .  A
O432        C434   1.272       .  A
C434        C734   1.485       .  S
O435        C440   1.272   1_556  A
O436        C438   1.273       .  A
C437        O439   1.272       .  A
C437        C926   1.489       .  S
C438        C878   1.487       .  S
C440        C806   1.489       .  S
Fe441       O457   2.064       .  S
Fe441       O447   2.099       .  S
Fe441       O454   2.103       .  S
Fe441       O446   2.059       .  S
Fe441       O452   1.962       .  S
Fe442       O445   2.053       .  S
Fe442       O449   2.064       .  S
Fe442       O453   2.044       .  S
Fe442       O458   2.079       .  S
Fe442       O452   1.950       .  S
Fe443       O461   2.077       .  S
Fe443       O448   2.047       .  S
Fe443       O455   2.044       .  S
Fe443       O444   2.075       .  S
Fe443       O452   1.953       .  S
O444        C451   1.272       .  A
O445        C459   1.266       .  A
O446        C451   1.270       .  A
O447        C450   1.275       .  A
O448        C460   1.268       .  A
O449        C462   1.273       .  A
C450        O455   1.266       .  A
C450       C1454   1.482       .  S
C451        C629   1.481       .  S
O453        C456   1.265       .  A
O454        C456   1.274       .  A
C456        C758   1.493       .  S
O457        C462   1.271       .  A
O458        C460   1.273       .  A
C459        O461   1.269       .  A
C459        C710   1.487       .  S
C460        C677   1.484       .  S
C462        C662   1.485       .  S
Fe463       O479   2.058       .  S
Fe463       O469   2.094       .  S
Fe463       O476   2.091       .  S
Fe463       O468   2.052       .  S
Fe463       O474   1.966       .  S
Fe464       O467   2.047       .  S
Fe464       O471   2.078       .  S
Fe464       O475   2.042       .  S
Fe464       O480   2.088       .  S
Fe464       O474   1.951       .  S
Fe465       O483   2.078       .  S
Fe465       O470   2.055       .  S
Fe465       O477   2.049       .  S
Fe465       O466   2.075       .  S
Fe465       O474   1.959       .  S
O466        C473   1.271       .  A
O467        C481   1.265       .  A
O468        C473   1.268       .  A
O469        C472   1.275       .  A
O470        C482   1.270       .  A
O471        C484   1.275       .  A
C472        O477   1.267       .  A
C472       C1358   1.483       .  S
C473        C653   1.476   1_556  S
O475        C478   1.265       .  A
O476        C478   1.271       .  A
C478        C725   1.487       .  S
O479        C484   1.271       .  A
O480        C482   1.276       .  A
C481        O483   1.268       .  A
C481        C605   1.485       .  S
C482        C590   1.491       .  S
C484        C638   1.488       .  S
Fe485       O501   2.065       .  S
Fe485       O491   2.089       .  S
Fe485       O498   2.093       .  S
Fe485       O490   2.060       .  S
Fe485       O496   1.978       .  S
Fe486       O489   2.054       .  S
Fe486       O493   2.064       .  S
Fe486       O497   2.048       .  S
Fe486       O502   2.079       .  S
Fe486       O496   1.965       .  S
Fe487       O505   2.073       .  S
Fe487       O492   2.058       .  S
Fe487       O499   2.059       .  S
Fe487       O488   2.060       .  S
Fe487       O496   1.970       .  S
O488        C495   1.268       .  A
O489        C503   1.267       .  A
O490        C495   1.267       .  A
O491        C494   1.275       .  A
O492        C504   1.270       .  A
O493        C506   1.271       .  A
C494        O499   1.270       .  A
C494       C1742   1.491       .  S
C495        C542   1.481       .  S
O497        C500   1.266       .  A
O498        C500   1.272       .  A
C500        C902   1.490       .  S
O501        C506   1.270       .  A
O502        C504   1.273       .  A
C503        O505   1.268       .  A
C503        C701   1.487       .  S
C504        C581   1.484       .  S
C506        C557   1.481       .  S
Fe507       O523   2.056       .  S
Fe507       O513   2.102       .  S
Fe507       O520   2.096       .  S
Fe507       O512   2.057       .  S
Fe507       O518   1.957       .  S
Fe508       O511   2.050       .  S
Fe508       O515   2.069       .  S
Fe508       O519   2.037       .  S
Fe508       O524   2.080       .  S
Fe508       O518   1.949       .  S
Fe509       O527   2.086       .  S
Fe509       O514   2.053       .  S
Fe509       O521   2.051       .  S
Fe509       O510   2.074       .  S
Fe509       O518   1.953       .  S
O510        C517   1.271       .  A
O511        C525   1.266       .  A
O512        C517   1.267       .  A
O513        C516   1.278       .  A
O514        C526   1.269       .  A
O515        C528   1.271       .  A
C516        O521   1.270       .  A
C516       C1685   1.495       .  S
C517        C566   1.483       .  S
O519        C522   1.265       .  A
O520        C522   1.275       .  A
C522        C821   1.480       .  S
O523        C528   1.269       .  A
O524        C526   1.273       .  A
C525        O527   1.271       .  A
C525        C614   1.485       .  S
C526        C686   1.486       .  S
C528        C533   1.479       .  S
C529        C530   1.401       .  A
C529        C534   1.397       .  A
C529        H539   1.084       .  S
C530        C535   1.475       .  S
C530        C531   1.406       .  A
C531        C532   1.398       .  A
C531        O536   1.372       .  S
C532        C533   1.407       .  A
C532        H537   1.084       .  S
C533        C534   1.411       .  A
C534        O538   1.371       .  S
C535        C540   1.406       .  A
C535        C544   1.401       .  A
O536        H552   0.992       .  S
O538        H549   0.992       .  S
C540        C541   1.395   1_556  A
C540        O545   1.372       .  S
C541        C542   1.406       .  A
C541        H546   1.084       .  S
C542        C543   1.413       .  A
C543        C544   1.401   1_554  A
C543        O547   1.370       .  S
C544        H548   1.084       .  S
O545        H550   0.992       .  S
O547        H551   0.992       .  S
C553        C554   1.404       .  A
C553        C558   1.403       .  A
C553        H563   1.083       .  S
C554        C559   1.480       .  S
C554        C555   1.407       .  A
C555        C556   1.394       .  A
C555        O560   1.372       .  S
C556        C557   1.404       .  A
C556        H561   1.084       .  S
C557        C558   1.412       .  A
C558        O562   1.372       .  S
C559        C564   1.406       .  A
C559        C568   1.403       .  A
O560        H576   0.992       .  S
O562        H573   0.992       .  S
C564        C565   1.398       .  A
C564        O569   1.372       .  S
C565        C566   1.407       .  A
C565        H570   1.084       .  S
C566        C567   1.413       .  A
C567        C568   1.400       .  A
C567        O571   1.372       .  S
C568        H572   1.084       .  S
O569        H574   0.992       .  S
O571        H575   0.992       .  S
C577        C578   1.404       .  A
C577        C582   1.400       .  A
C577        H587   1.083       .  S
C578        C583   1.486       .  S
C578        C579   1.409       .  A
C579        C580   1.401       .  A
C579        O584   1.371       .  S
C580        C581   1.407       .  A
C580        H585   1.083       .  S
C581        C582   1.411       .  A
C582        O586   1.373       .  S
C583        C588   1.408   1_554  A
C583        C592   1.403       .  A
O584        H600   0.992       .  S
O586        H597   0.992       .  S
C588        C589   1.401       .  A
C588        O593   1.371       .  S
C589        C590   1.408       .  A
C589        H594   1.083       .  S
C590        C591   1.415   1_556  A
C591        C592   1.400       .  A
C591        O595   1.372       .  S
C592        H596   1.084       .  S
O593        H598   0.992       .  S
O595        H599   0.992       .  S
C601        C602   1.405       .  A
C601        C606   1.403       .  A
C601        H611   1.083       .  S
C602        C607   1.489       .  S
C602        C603   1.411       .  A
C603        C604   1.397       .  A
C603        O608   1.372       .  S
C604        C605   1.405       .  A
C604        H609   1.084       .  S
C605        C606   1.413       .  A
C606        O610   1.372       .  S
C607        C612   1.410       .  A
C607        C616   1.404       .  A
O608        H624   0.992       .  S
O610        H621   0.992       .  S
C612        C613   1.399       .  A
C612        O617   1.372       .  S
C613        C614   1.406       .  A
C613        H618   1.084       .  S
C614        C615   1.412       .  A
C615        C616   1.402       .  A
C615        O619   1.371       .  S
C616        H620   1.084       .  S
O617        H622   0.992       .  S
O619        H623   0.992       .  S
C625        C626   1.402       .  A
C625        C630   1.400       .  A
C625        H635   1.084       .  S
C626        C631   1.476       .  S
C626        C627   1.405       .  A
C627        C628   1.398       .  A
C627        O632   1.372       .  S
C628        C629   1.407       .  A
C628        H633   1.084       .  S
C629        C630   1.412       .  A
C630        O634   1.371       .  S
C631        C636   1.405       .  A
C631        C640   1.400       .  A
O632        H648   0.992       .  S
O634        H645   0.992       .  S
C636        C637   1.397       .  A
C636        O641   1.372       .  S
C637        C638   1.407       .  A
C637        H642   1.083       .  S
C638        C639   1.416       .  A
C639        C640   1.402       .  A
C639        O643   1.372       .  S
C640        H644   1.084       .  S
O641        H646   0.992       .  S
O643        H647   0.992       .  S
C649        C650   1.402       .  A
C649        C654   1.397       .  A
C649        H659   1.084       .  S
C650        C655   1.475       .  S
C650        C651   1.406       .  A
C651        C652   1.398       .  A
C651        O656   1.372       .  S
C652        C653   1.405       .  A
C652        H657   1.084       .  S
C653        C654   1.410       .  A
C654        O658   1.371       .  S
C655        C660   1.404       .  A
C655        C664   1.402       .  A
O656        H672   0.992       .  S
O658        H669   0.992       .  S
C660        C661   1.393       .  A
C660        O665   1.372       .  S
C661        C662   1.407       .  A
C661        H666   1.083       .  S
C662        C663   1.415       .  A
C663        C664   1.402       .  A
C663        O667   1.371       .  S
C664        H668   1.084       .  S
O665        H670   0.992       .  S
O667        H671   0.992       .  S
C673        C674   1.400       .  A
C673        C678   1.396       .  A
C673        H683   1.084       .  S
C674        C679   1.477       .  S
C674        C675   1.406       .  A
C675        C676   1.399       .  A
C675        O680   1.371       .  S
C676        C677   1.408       .  A
C676        H681   1.083       .  S
C677        C678   1.414       .  A
C678        O682   1.373       .  S
C679        C684   1.405       .  A
C679        C688   1.402       .  A
O680        H696   0.992       .  S
O682        H693   0.992       .  S
C684        C685   1.399       .  A
C684        O689   1.372       .  S
C685        C686   1.409       .  A
C685        H690   1.083       .  S
C686        C687   1.414       .  A
C687        C688   1.398       .  A
C687        O691   1.372       .  S
C688        H692   1.084       .  S
O689        H694   0.992       .  S
O691        H695   0.992       .  S
C697        C698   1.403       .  A
C697        C702   1.402       .  A
C697        H707   1.084       .  S
C698        C703   1.483       .  S
C698        C699   1.409       .  A
C699        C700   1.398       .  A
C699        O704   1.372       .  S
C700        C701   1.406       .  A
C700        H705   1.084       .  S
C701        C702   1.415       .  A
C702        O706   1.371       .  S
C703        C708   1.408       .  A
C703        C712   1.403       .  A
O704        H720   0.992       .  S
O706        H717   0.992       .  S
C708        C709   1.398       .  A
C708        O713   1.372       .  S
C709        C710   1.407       .  A
C709        H714   1.084       .  S
C710        C711   1.414       .  A
C711        C712   1.401       .  A
C711        O715   1.371       .  S
C712        H716   1.084       .  S
O713        H718   0.992       .  S
O715        H719   0.992       .  S
C721        C722   1.405       .  A
C721        C726   1.407       .  A
C721        H731   1.083       .  S
C722        C727   1.483   1_655  S
C722        C723   1.406       .  A
C723        C724   1.394       .  A
C723        O728   1.372       .  S
C724        C725   1.407       .  A
C724        H729   1.084       .  S
C725        C726   1.413       .  A
C726        O730   1.371       .  S
C727        C732   1.409       .  A
C727        C736   1.400       .  A
O728        H744   0.992       .  S
O730        H741   0.992       .  S
C732        C733   1.406       .  A
C732        O737   1.371       .  S
C733        C734   1.408       .  A
C733        H738   1.083       .  S
C734        C735   1.413       .  A
C735        C736   1.394       .  A
C735        O739   1.372       .  S
C736        H740   1.084       .  S
O737        H742   0.992       .  S
O739        H743   0.992   1_556  S
C745        C746   1.406       .  A
C745        C750   1.409       .  A
C745        H755   1.083       .  S
C746        C751   1.492   1_455  S
C746        C747   1.409       .  A
C747        C748   1.396       .  A
C747        O752   1.372       .  S
C748        C749   1.406       .  A
C748        H753   1.083       .  S
C749        C750   1.415       .  A
C750        O754   1.371       .  S
C751        C756   1.411       .  A
C751        C760   1.402       .  A
O752        H768   0.992       .  S
O754        H765   0.992       .  S
C756        C757   1.409       .  A
C756        O761   1.371       .  S
C757        C758   1.408       .  A
C757        H762   1.083       .  S
C758        C759   1.415       .  A
C759        C760   1.396       .  A
C759        O763   1.372       .  S
C760        H764   1.084       .  S
O761        H766   0.992       .  S
O763        H767   0.992       .  S
C769        C770   1.403       .  A
C769        C774   1.402       .  A
C769        H779   1.084       .  S
C770        C775   1.482       .  S
C770        C771   1.407       .  A
C771        C772   1.397       .  A
C771        O776   1.372       .  S
C772        C773   1.406       .  A
C772        H777   1.083       .  S
C773        C774   1.414       .  A
C774        O778   1.370       .  S
C775        C780   1.407       .  A
C775        C784   1.404       .  A
O776        H792   0.992       .  S
O778        H789   0.992       .  S
C780        C781   1.397       .  A
C780        O785   1.372       .  S
C781        C782   1.405       .  A
C781        H786   1.084       .  S
C782        C783   1.412       .  A
C783        C784   1.402       .  A
C783        O787   1.372       .  S
C784        H788   1.084       .  S
O785        H790   0.992       .  S
O787        H791   0.992       .  S
C793        C794   1.402       .  A
C793        C798   1.399       .  A
C793        H803   1.084       .  S
C794        C799   1.478       .  S
C794        C795   1.408       .  A
C795        C796   1.399       .  A
C795        O800   1.371       .  S
C796        C797   1.404       .  A
C796        H801   1.084       .  S
C797        C798   1.412       .  A
C798        O802   1.372       .  S
C799        C804   1.406       .  A
C799        C808   1.399       .  A
O800        H816   0.992       .  S
O802        H813   0.992       .  S
C804        C805   1.404       .  A
C804        O809   1.372       .  S
C805        C806   1.410       .  A
C805        H810   1.083       .  S
C806        C807   1.415       .  A
C807        C808   1.394       .  A
C807        O811   1.372       .  S
C808        H812   1.084       .  S
O809        H814   0.992       .  S
O811        H815   0.992       .  S
C817        C818   1.399       .  A
C817        C822   1.394       .  A
C817        H827   1.084       .  S
C818        C823   1.476   1_655  S
C818        C819   1.407       .  A
C819        C820   1.404       .  A
C819        O824   1.371       .  S
C820        C821   1.406       .  A
C820        H825   1.083       .  S
C821        C822   1.414       .  A
C822        O826   1.372       .  S
C823        C828   1.404       .  A
C823        C832   1.403       .  A
O824        H840   0.992       .  S
O826        H837   0.992       .  S
C828        C829   1.395       .  A
C828        O833   1.372       .  S
C829        C830   1.406       .  A
C829        H834   1.084       .  S
C830        C831   1.411       .  A
C831        C832   1.404       .  A
C831        O835   1.371       .  S
C832        H836   1.083       .  S
O833        H838   0.992       .  S
O835        H839   0.992       .  S
C841        C842   1.403       .  A
C841        C846   1.403       .  A
C841        H851   1.083       .  S
C842        C847   1.484       .  S
C842        C843   1.409       .  A
C843        C844   1.397       .  A
C843        O848   1.373       .  S
C844        C845   1.408       .  A
C844        H849   1.084       .  S
C845        C846   1.414       .  A
C846        O850   1.372       .  S
C847        C852   1.409       .  A
C847        C856   1.403       .  A
O848        H864   0.992       .  S
O850        H861   0.992       .  S
C852        C853   1.398       .  A
C852        O857   1.372       .  S
C853        C854   1.405       .  A
C853        H858   1.084       .  S
C854        C855   1.415       .  A
C855        C856   1.401       .  A
C855        O859   1.371       .  S
C856        H860   1.084       .  S
O857        H862   0.992       .  S
O859        H863   0.992       .  S
C865        C866   1.402       .  A
C865        C870   1.402       .  A
C865        H875   1.083       .  S
C866        C871   1.481       .  S
C866        C867   1.406       .  A
C867        C868   1.397       .  A
C867        O872   1.372       .  S
C868        C869   1.409       .  A
C868        H873   1.083       .  S
C869        C870   1.415       .  A
C870        O874   1.371       .  S
C871        C876   1.406       .  A
C871        C880   1.403       .  A
O872        H888   0.992       .  S
O874        H885   0.992       .  S
C876        C877   1.398       .  A
C876        O881   1.372       .  S
C877        C878   1.408       .  A
C877        H882   1.083       .  S
C878        C879   1.414       .  A
C879        C880   1.401       .  A
C879        O883   1.371       .  S
C880        H884   1.084       .  S
O881        H886   0.992       .  S
O883        H887   0.992       .  S
C889        C890   1.401       .  A
C889        C894   1.397       .  A
C889        H899   1.084       .  S
C890        C895   1.489   1_455  S
C890        C891   1.409       .  A
C891        C892   1.408       .  A
C891        O896   1.371       .  S
C892        C893   1.409       .  A
C892        H897   1.083       .  S
C893        C894   1.416       .  A
C894        O898   1.372       .  S
C895        C900   1.407       .  A
C895        C904   1.406       .  A
O896        H912   0.992       .  S
O898        H909   0.992       .  S
C900        C901   1.397       .  A
C900        O905   1.373       .  S
C901        C902   1.406       .  A
C901        H906   1.084       .  S
C902        C903   1.412       .  A
C903        C904   1.409       .  A
C903        O907   1.371       .  S
C904        H908   1.083       .  S
O905        H910   0.992       .  S
O907        H911   0.991       .  S
C913        C914   1.405       .  A
C913        C918   1.400       .  A
C913        H923   1.083   1_554  S
C914        C919   1.492       .  S
C914        C915   1.411       .  A
C915        C916   1.404       .  A
C915        O920   1.371       .  S
C916        C917   1.407       .  A
C916        H921   1.083       .  S
C917        C918   1.412       .  A
C918        O922   1.372       .  S
C919        C924   1.410   1_554  A
C919        C928   1.405       .  A
O920        H936   0.991       .  S
O922        H933   0.992   1_554  S
C924        C925   1.406       .  A
C924        O929   1.373       .  S
C925        C926   1.408       .  A
C925        H930   1.083       .  S
C926        C927   1.412   1_556  A
C927        C928   1.399       .  A
C927        O931   1.372       .  S
C928        H932   1.083       .  S
O929        H934   0.992       .  S
O931        H935   0.992       .  S
C937        C938   1.403       .  A
C937        C942   1.402       .  A
C937        H947   1.083       .  S
C938        C943   1.484       .  S
C938        C939   1.408       .  A
C939        C940   1.398       .  A
C939        O944   1.372       .  S
C940        C941   1.408       .  A
C940        H945   1.083       .  S
C941        C942   1.415       .  A
C942        O946   1.371       .  S
C943        C948   1.408       .  A
C943        C952   1.403       .  A
O944        H960   0.992       .  S
O946        H957   0.992       .  S
C948        C949   1.400       .  A
C948        O953   1.372       .  S
C949        C950   1.406       .  A
C949        H954   1.084       .  S
C950        C951   1.414       .  A
C951        C952   1.400       .  A
C951        O955   1.372       .  S
C952        H956   1.084       .  S
O953        H958   0.992       .  S
O955        H959   0.992       .  S
C961        C962   1.402       .  A
C961        C966   1.402       .  A
C961        H971   1.084       .  S
C962        C967   1.481       .  S
C962        C963   1.407       .  A
C963        C964   1.398       .  A
C963        O968   1.372       .  S
C964        C965   1.407       .  A
C964        H969   1.083       .  S
C965        C966   1.415       .  A
C966        O970   1.371       .  S
C967        C972   1.406       .  A
C967        C976   1.403       .  A
O968        H984   0.992       .  S
O970        H981   0.992       .  S
C972        C973   1.398       .  A
C972        O977   1.372       .  S
C973        C974   1.407   1_556  A
C973        H978   1.084       .  S
C974        C975   1.413   1_554  A
C975        C976   1.402       .  A
C975        O979   1.372   1_556  S
C976        H980   1.084       .  S
O977        H982   0.992       .  S
O979        H983   0.992       .  S
C985        C986   1.402       .  A
C985        C990   1.401       .  A
C985        H995   1.084       .  S
C986        C991   1.481       .  S
C986        C987   1.407       .  A
C987        C988   1.399       .  A
C987        O992   1.371       .  S
C988        C989   1.407       .  A
C988        H993   1.083       .  S
C989        C990   1.414       .  A
C990        O994   1.372       .  S
C991        C996   1.407       .  A
C991       C1000   1.400       .  A
O992       H1008   0.992       .  S
O994       H1005   0.991       .  S
C996        C997   1.404       .  A
C996       O1001   1.372       .  S
C997        C998   1.409       .  A
C997       H1002   1.083       .  S
C998        C999   1.415       .  A
C999       C1000   1.397       .  A
C999       O1003   1.372       .  S
C1000      H1004   1.084       .  S
O1001      H1006   0.992       .  S
O1003      H1007   0.992       .  S
C1009      C1010   1.404       .  A
C1009      C1014   1.398       .  A
C1009      H1019   1.084       .  S
C1010      C1015   1.483       .  S
C1010      C1011   1.408       .  A
C1011      C1012   1.403       .  A
C1011      O1016   1.372       .  S
C1012      C1013   1.406       .  A
C1012      H1017   1.084       .  S
C1013      C1014   1.410       .  A
C1014      O1018   1.372       .  S
C1015      C1020   1.408       .  A
C1015      C1024   1.403       .  A
O1016      H1032   0.992       .  S
O1018      H1029   0.992       .  S
C1020      C1021   1.401       .  A
C1020      O1025   1.371       .  S
C1021      C1022   1.407       .  A
C1021      H1026   1.083       .  S
C1022      C1023   1.412       .  A
C1023      C1024   1.399       .  A
C1023      O1027   1.372       .  S
C1024      H1028   1.084       .  S
O1025      H1030   0.992       .  S
O1027      H1031   0.992       .  S
C1033      C1034   1.404       .  A
C1033      C1038   1.402       .  A
C1033      H1043   1.084       .  S
C1034      C1039   1.486       .  S
C1034      C1035   1.411       .  A
C1035      C1036   1.402       .  A
C1035      O1040   1.373       .  S
C1036      C1037   1.401       .  A
C1036      H1041   1.084       .  S
C1037      C1038   1.410       .  A
C1038      O1042   1.372       .  S
C1039      C1044   1.407       .  A
C1039      C1048   1.404       .  A
O1040      H1056   0.992       .  S
O1042      H1053   0.992       .  S
C1044      C1045   1.396       .  A
C1044      O1049   1.372       .  S
C1045      C1046   1.408       .  A
C1045      H1050   1.083       .  S
C1046      C1047   1.416       .  A
C1047      C1048   1.405       .  A
C1047      O1051   1.372       .  S
C1048      H1052   1.083       .  S
O1049      H1054   0.992       .  S
O1051      H1055   0.992       .  S
C1057      C1058   1.402       .  A
C1057      C1062   1.402       .  A
C1057      H1067   1.084       .  S
C1058      C1063   1.479       .  S
C1058      C1059   1.405       .  A
C1059      C1060   1.400       .  A
C1059      O1064   1.372       .  S
C1060      C1061   1.408       .  A
C1060      H1065   1.083       .  S
C1061      C1062   1.413       .  A
C1062      O1066   1.372       .  S
C1063      C1068   1.404       .  A
C1063      C1072   1.401       .  A
O1064      H1080   0.992       .  S
O1066      H1077   0.992       .  S
C1068      C1069   1.397       .  A
C1068      O1073   1.372       .  S
C1069      C1070   1.408       .  A
C1069      H1074   1.083       .  S
C1070      C1071   1.418       .  A
C1071      C1072   1.405       .  A
C1071      O1075   1.371       .  S
C1072      H1076   1.084       .  S
O1073      H1078   0.992       .  S
O1075      H1079   0.992       .  S
C1081      C1082   1.401       .  A
C1081      C1086   1.399       .  A
C1081      H1091   1.084       .  S
C1082      C1087   1.482       .  S
C1082      C1083   1.406       .  A
C1083      C1084   1.401       .  A
C1083      O1088   1.371       .  S
C1084      C1085   1.409       .  A
C1084      H1089   1.083       .  S
C1085      C1086   1.415       .  A
C1086      O1090   1.371       .  S
C1087      C1092   1.407       .  A
C1087      C1096   1.403       .  A
O1088      H1104   0.992       .  S
O1090      H1101   0.992       .  S
C1092      C1093   1.402       .  A
C1092      O1097   1.372       .  S
C1093      C1094   1.406       .  A
C1093      H1098   1.084       .  S
C1094      C1095   1.412       .  A
C1095      C1096   1.398       .  A
C1095      O1099   1.372       .  S
C1096      H1100   1.084       .  S
O1097      H1102   0.992       .  S
O1099      H1103   0.992       .  S
C1105      C1106   1.401   1_554  A
C1105      C1110   1.401       .  A
C1105      H1115   1.084       .  S
C1106      C1111   1.476       .  S
C1106      C1107   1.406       .  A
C1107      C1108   1.394   1_556  A
C1107      O1112   1.372       .  S
C1108      C1109   1.407       .  A
C1108      H1113   1.083   1_554  S
C1109      C1110   1.415       .  A
C1110      O1114   1.371       .  S
C1111      C1116   1.407       .  A
C1111      C1120   1.400       .  A
O1112      H1128   0.992       .  S
O1114      H1125   0.992       .  S
C1116      C1117   1.400       .  A
C1116      O1121   1.372   1_556  S
C1117      C1118   1.407       .  A
C1117      H1122   1.084       .  S
C1118      C1119   1.414       .  A
C1119      C1120   1.396       .  A
C1119      O1123   1.372       .  S
C1120      H1124   1.084       .  S
O1121      H1126   0.992       .  S
O1123      H1127   0.992       .  S
C1129      C1130   1.404       .  A
C1129      C1134   1.404       .  A
C1129      H1139   1.084       .  S
C1130      C1135   1.484       .  S
C1130      C1131   1.407       .  A
C1131      C1132   1.397       .  A
C1131      O1136   1.372       .  S
C1132      C1133   1.408       .  A
C1132      H1137   1.084       .  S
C1133      C1134   1.414       .  A
C1134      O1138   1.371       .  S
C1135      C1140   1.408       .  A
C1135      C1144   1.403       .  A
O1136      H1152   0.992       .  S
O1138      H1149   0.992       .  S
C1140      C1141   1.399       .  A
C1140      O1145   1.372       .  S
C1141      C1142   1.406       .  A
C1141      H1146   1.084       .  S
C1142      C1143   1.415       .  A
C1143      C1144   1.402       .  A
C1143      O1147   1.371       .  S
C1144      H1148   1.084       .  S
O1145      H1150   0.992       .  S
O1147      H1151   0.992       .  S
C1153      C1154   1.403       .  A
C1153      C1158   1.401       .  A
C1153      H1163   1.084       .  S
C1154      C1159   1.478       .  S
C1154      C1155   1.407       .  A
C1155      C1156   1.396       .  A
C1155      O1160   1.372       .  S
C1156      C1157   1.403       .  A
C1156      H1161   1.084       .  S
C1157      C1158   1.412       .  A
C1158      O1162   1.372       .  S
C1159      C1164   1.405       .  A
C1159      C1168   1.402       .  A
O1160      H1176   0.992       .  S
O1162      H1173   0.992       .  S
C1164      C1165   1.397       .  A
C1164      O1169   1.372       .  S
C1165      C1166   1.410       .  A
C1165      H1170   1.083       .  S
C1166      C1167   1.413       .  A
C1167      C1168   1.400       .  A
C1167      O1171   1.371       .  S
C1168      H1172   1.084       .  S
O1169      H1174   0.992       .  S
O1171      H1175   0.992       .  S
C1177      C1178   1.401       .  A
C1177      C1182   1.402       .  A
C1177      H1187   1.084       .  S
C1178      C1183   1.477       .  S
C1178      C1179   1.404       .  A
C1179      C1180   1.396       .  A
C1179      O1184   1.372       .  S
C1180      C1181   1.408       .  A
C1180      H1185   1.083       .  S
C1181      C1182   1.415       .  A
C1182      O1186   1.372       .  S
C1183      C1188   1.405       .  A
C1183      C1192   1.402       .  A
O1184      H1200   0.992       .  S
O1186      H1197   0.992       .  S
C1188      C1189   1.398   1_554  A
C1188      O1193   1.372       .  S
C1189      C1190   1.407       .  A
C1189      H1194   1.084       .  S
C1190      C1191   1.413       .  A
C1191      C1192   1.401   1_556  A
C1191      O1195   1.371       .  S
C1192      H1196   1.084       .  S
O1193      H1198   0.992       .  S
O1195      H1199   0.992       .  S
C1201      C1202   1.402       .  A
C1201      C1206   1.401       .  A
C1201      H1211   1.083       .  S
C1202      C1207   1.480       .  S
C1202      C1203   1.407       .  A
C1203      C1204   1.396       .  A
C1203      O1208   1.372       .  S
C1204      C1205   1.407       .  A
C1204      H1209   1.083       .  S
C1205      C1206   1.414       .  A
C1206      O1210   1.371       .  S
C1207      C1212   1.407       .  A
C1207      C1216   1.402       .  A
O1208      H1224   0.992       .  S
O1210      H1221   0.992       .  S
C1212      C1213   1.400       .  A
C1212      O1217   1.372       .  S
C1213      C1214   1.406       .  A
C1213      H1218   1.084       .  S
C1214      C1215   1.412       .  A
C1215      C1216   1.398       .  A
C1215      O1219   1.372       .  S
C1216      H1220   1.084       .  S
O1217      H1222   0.992       .  S
O1219      H1223   0.992       .  S
C1225      C1226   1.404       .  A
C1225      C1230   1.401       .  A
C1225      H1235   1.083       .  S
C1226      C1231   1.488       .  S
C1226      C1227   1.409       .  A
C1227      C1228   1.402       .  A
C1227      O1232   1.371       .  S
C1228      C1229   1.408       .  A
C1228      H1233   1.083       .  S
C1229      C1230   1.412       .  A
C1230      O1234   1.373       .  S
C1231      C1236   1.408       .  A
C1231      C1240   1.404       .  A
O1232      H1248   0.992       .  S
O1234      H1245   0.992       .  S
C1236      C1237   1.404       .  A
C1236      O1241   1.372       .  S
C1237      C1238   1.407       .  A
C1237      H1242   1.083       .  S
C1238      C1239   1.414       .  A
C1239      C1240   1.399       .  A
C1239      O1243   1.372       .  S
C1240      H1244   1.084       .  S
O1241      H1246   0.992       .  S
O1243      H1247   0.992       .  S
C1249      C1250   1.402       .  A
C1249      C1254   1.394       .  A
C1249      H1259   1.084       .  S
C1250      C1255   1.481       .  S
C1250      C1251   1.409       .  A
C1251      C1252   1.403       .  A
C1251      O1256   1.371       .  S
C1252      C1253   1.404       .  A
C1252      H1257   1.084       .  S
C1253      C1254   1.409       .  A
C1254      O1258   1.372       .  S
C1255      C1260   1.405       .  A
C1255      C1264   1.404       .  A
O1256      H1272   0.992       .  S
O1258      H1269   0.992       .  S
C1260      C1261   1.393       .  A
C1260      O1265   1.373       .  S
C1261      C1262   1.407       .  A
C1261      H1266   1.083       .  S
C1262      C1263   1.414       .  A
C1263      C1264   1.405       .  A
C1263      O1267   1.371       .  S
C1264      H1268   1.083       .  S
O1265      H1270   0.992       .  S
O1267      H1271   0.992       .  S
C1273      C1274   1.403       .  A
C1273      C1278   1.396       .  A
C1273      H1283   1.084       .  S
C1274      C1279   1.482       .  S
C1274      C1275   1.409       .  A
C1275      C1276   1.401       .  A
C1275      O1280   1.371       .  S
C1276      C1277   1.404       .  A
C1276      H1281   1.084       .  S
C1277      C1278   1.410       .  A
C1278      O1282   1.372       .  S
C1279      C1284   1.406       .  A
C1279      C1288   1.404       .  A
O1280      H1296   0.992       .  S
O1282      H1293   0.992   1_554  S
C1284      C1285   1.394       .  A
C1284      O1289   1.373       .  S
C1285      C1286   1.408       .  A
C1285      H1290   1.083       .  S
C1286      C1287   1.414       .  A
C1287      C1288   1.404       .  A
C1287      O1291   1.371       .  S
C1288      H1292   1.083       .  S
O1289      H1294   0.992       .  S
O1291      H1295   0.992       .  S
C1297      C1298   1.401       .  A
C1297      C1302   1.394       .  A
C1297      H1307   1.083       .  S
C1298      C1303   1.482       .  S
C1298      C1299   1.410       .  A
C1299      C1300   1.403       .  A
C1299      O1304   1.372       .  S
C1300      C1301   1.407       .  A
C1300      H1305   1.083       .  S
C1301      C1302   1.412       .  A
C1302      O1306   1.372       .  S
C1303      C1308   1.408       .  A
C1303      C1312   1.402       .  A
O1304      H1320   0.992       .  S
O1306      H1317   0.992       .  S
C1308      C1309   1.401       .  A
C1308      O1313   1.372       .  S
C1309      C1310   1.405       .  A
C1309      H1314   1.084       .  S
C1310      C1311   1.412       .  A
C1311      C1312   1.399       .  A
C1311      O1315   1.372       .  S
C1312      H1316   1.084       .  S
O1313      H1318   0.992       .  S
O1315      H1319   0.992       .  S
C1321      C1322   1.402       .  A
C1321      C1326   1.400       .  A
C1321      H1331   1.083       .  S
C1322      C1327   1.485       .  S
C1322      C1323   1.410       .  A
C1323      C1324   1.401       .  A
C1323      O1328   1.371       .  S
C1324      C1325   1.406       .  A
C1324      H1329   1.083       .  S
C1325      C1326   1.413       .  A
C1326      O1330   1.373       .  S
C1327      C1332   1.409       .  A
C1327      C1336   1.403       .  A
O1328      H1344   0.992       .  S
O1330      H1341   0.992       .  S
C1332      C1333   1.404       .  A
C1332      O1337   1.372       .  S
C1333      C1334   1.407       .  A
C1333      H1338   1.083       .  S
C1334      C1335   1.414       .  A
C1335      C1336   1.397       .  A
C1335      O1339   1.372       .  S
C1336      H1340   1.084       .  S
O1337      H1342   0.992       .  S
O1339      H1343   0.992       .  S
C1345      C1346   1.404       .  A
C1345      C1350   1.399       .  A
C1345      H1355   1.084       .  S
C1346      C1351   1.485       .  S
C1346      C1347   1.408       .  A
C1347      C1348   1.402       .  A
C1347      O1352   1.373       .  S
C1348      C1349   1.405       .  A
C1348      H1353   1.084       .  S
C1349      C1350   1.411       .  A
C1350      O1354   1.372       .  S
C1351      C1356   1.410       .  A
C1351      C1360   1.403       .  A
O1352      H1368   0.992       .  S
O1354      H1365   0.992       .  S
C1356      C1357   1.401       .  A
C1356      O1361   1.371       .  S
C1357      C1358   1.405       .  A
C1357      H1362   1.083       .  S
C1358      C1359   1.412       .  A
C1359      C1360   1.400       .  A
C1359      O1363   1.372       .  S
C1360      H1364   1.084       .  S
O1361      H1366   0.992       .  S
O1363      H1367   0.992       .  S
C1369      C1370   1.401       .  A
C1369      C1374   1.394       .  A
C1369      H1379   1.084       .  S
C1370      C1375   1.480       .  S
C1370      C1371   1.411       .  A
C1371      C1372   1.405       .  A
C1371      O1376   1.371       .  S
C1372      C1373   1.402       .  A
C1372      H1377   1.084       .  S
C1373      C1374   1.408       .  A
C1374      O1378   1.372       .  S
C1375      C1380   1.406       .  A
C1375      C1384   1.402       .  A
O1376      H1392   0.992       .  S
O1378      H1389   0.992       .  S
C1380      C1381   1.395       .  A
C1380      O1385   1.373       .  S
C1381      C1382   1.408       .  A
C1381      H1386   1.083       .  S
C1382      C1383   1.415       .  A
C1383      C1384   1.404       .  A
C1383      O1387   1.371       .  S
C1384      H1388   1.083       .  S
O1385      H1390   0.992       .  S
O1387      H1391   0.992       .  S
C1393      C1394   1.403       .  A
C1393      C1398   1.402       .  A
C1393      H1403   1.083       .  S
C1394      C1399   1.485       .  S
C1394      C1395   1.409       .  A
C1395      C1396   1.398       .  A
C1395      O1400   1.372   1_556  S
C1396      C1397   1.407       .  A
C1396      H1401   1.084       .  S
C1397      C1398   1.414       .  A
C1398      O1402   1.371       .  S
C1399      C1404   1.409       .  A
C1399      C1408   1.404   1_556  A
O1400      H1416   0.992       .  S
O1402      H1413   0.992       .  S
C1404      C1405   1.398       .  A
C1404      O1409   1.372       .  S
C1405      C1406   1.406   1_556  A
C1405      H1410   1.084       .  S
C1406      C1407   1.414       .  A
C1407      C1408   1.403       .  A
C1407      O1411   1.372       .  S
C1408      H1412   1.084       .  S
O1409      H1414   0.992       .  S
O1411      H1415   0.992       .  S
C1417      C1418   1.402       .  A
C1417      C1422   1.401       .  A
C1417      H1427   1.084       .  S
C1418      C1423   1.481       .  S
C1418      C1419   1.406       .  A
C1419      C1420   1.398       .  A
C1419      O1424   1.372       .  S
C1420      C1421   1.409       .  A
C1420      H1425   1.083       .  S
C1421      C1422   1.414       .  A
C1422      O1426   1.371       .  S
C1423      C1428   1.406       .  A
C1423      C1432   1.403       .  A
O1424      H1440   0.992       .  S
O1426      H1437   0.992       .  S
C1428      C1429   1.396       .  A
C1428      O1433   1.372       .  S
C1429      C1430   1.407       .  A
C1429      H1434   1.083       .  S
C1430      C1431   1.415       .  A
C1431      C1432   1.402       .  A
C1431      O1435   1.371       .  S
C1432      H1436   1.084       .  S
O1433      H1438   0.992       .  S
O1435      H1439   0.992       .  S
C1441      C1442   1.403       .  A
C1441      C1446   1.399       .  A
C1441      H1451   1.084       .  S
C1442      C1447   1.484       .  S
C1442      C1443   1.409       .  A
C1443      C1444   1.401       .  A
C1443      O1448   1.373       .  S
C1444      C1445   1.405       .  A
C1444      H1449   1.084       .  S
C1445      C1446   1.411       .  A
C1446      O1450   1.372       .  S
C1447      C1452   1.409       .  A
C1447      C1456   1.404       .  A
O1448      H1464   0.992       .  S
O1450      H1461   0.992       .  S
C1452      C1453   1.398       .  A
C1452      O1457   1.372       .  S
C1453      C1454   1.406       .  A
C1453      H1458   1.084       .  S
C1454      C1455   1.411       .  A
C1455      C1456   1.401       .  A
C1455      O1459   1.371       .  S
C1456      H1460   1.084       .  S
O1457      H1462   0.991       .  S
O1459      H1463   0.992       .  S
C1465      C1466   1.407       .  A
C1465      C1470   1.406       .  A
C1465      H1475   1.083       .  S
C1466      C1471   1.484       .  S
C1466      C1467   1.409       .  A
C1467      C1468   1.393       .  A
C1467      O1472   1.372       .  S
C1468      C1469   1.401       .  A
C1468      H1473   1.084       .  S
C1469      C1470   1.408       .  A
C1470      O1474   1.371       .  S
C1471      C1476   1.408       .  A
C1471      C1480   1.401       .  A
O1472      H1488   0.992       .  S
O1474      H1485   0.992       .  S
C1476      C1477   1.404       .  A
C1476      O1481   1.371       .  S
C1477      C1478   1.410       .  A
C1477      H1482   1.083       .  S
C1478      C1479   1.413       .  A
C1479      C1480   1.393       .  A
C1479      O1483   1.372       .  S
C1480      H1484   1.084       .  S
O1481      H1486   0.992       .  S
O1483      H1487   0.992       .  S
C1489      C1490   1.404       .  A
C1489      C1494   1.403       .  A
C1489      H1499   1.084       .  S
C1490      C1495   1.489       .  S
C1490      C1491   1.410       .  A
C1491      C1492   1.400       .  A
C1491      O1496   1.372       .  S
C1492      C1493   1.407       .  A
C1492      H1497   1.084       .  S
C1493      C1494   1.414       .  A
C1494      O1498   1.372       .  S
C1495      C1500   1.410       .  A
C1495      C1504   1.406       .  A
O1496      H1512   0.992       .  S
O1498      H1509   0.992       .  S
C1500      C1501   1.396       .  A
C1500      O1505   1.372       .  S
C1501      C1502   1.405       .  A
C1501      H1506   1.084       .  S
C1502      C1503   1.414       .  A
C1503      C1504   1.405       .  A
C1503      O1507   1.371       .  S
C1504      H1508   1.083       .  S
O1505      H1510   0.992       .  S
O1507      H1511   0.992       .  S
C1513      C1514   1.403       .  A
C1513      C1518   1.404       .  A
C1513      H1523   1.084       .  S
C1514      C1519   1.477       .  S
C1514      C1515   1.405       .  A
C1515      C1516   1.394       .  A
C1515      O1520   1.372       .  S
C1516      C1517   1.406       .  A
C1516      H1521   1.083       .  S
C1517      C1518   1.415       .  A
C1518      O1522   1.372       .  S
C1519      C1524   1.405       .  A
C1519      C1528   1.403       .  A
O1520      H1536   0.992       .  S
O1522      H1533   0.992       .  S
C1524      C1525   1.397       .  A
C1524      O1529   1.372       .  S
C1525      C1526   1.407       .  A
C1525      H1530   1.083       .  S
C1526      C1527   1.413       .  A
C1527      C1528   1.402       .  A
C1527      O1531   1.371       .  S
C1528      H1532   1.084       .  S
O1529      H1534   0.992       .  S
O1531      H1535   0.992       .  S
C1537      C1538   1.403       .  A
C1537      C1542   1.400       .  A
C1537      H1547   1.084       .  S
C1538      C1543   1.479       .  S
C1538      C1539   1.406       .  A
C1539      C1540   1.397       .  A
C1539      O1544   1.372       .  S
C1540      C1541   1.407       .  A
C1540      H1545   1.083       .  S
C1541      C1542   1.413       .  A
C1542      O1546   1.371       .  S
C1543      C1548   1.405       .  A
C1543      C1552   1.404       .  A
O1544      H1560   0.992       .  S
O1546      H1557   0.992       .  S
C1548      C1549   1.394       .  A
C1548      O1553   1.372       .  S
C1549      C1550   1.407   1_554  A
C1549      H1554   1.084       .  S
C1550      C1551   1.413   1_556  A
C1551      C1552   1.403       .  A
C1551      O1555   1.372   1_554  S
C1552      H1556   1.084       .  S
O1553      H1558   0.992       .  S
O1555      H1559   0.992       .  S
C1561      C1562   1.402       .  A
C1561      C1566   1.400       .  A
C1561      H1571   1.084       .  S
C1562      C1567   1.480       .  S
C1562      C1563   1.407       .  A
C1563      C1564   1.398       .  A
C1563      O1568   1.372       .  S
C1564      C1565   1.408       .  A
C1564      H1569   1.084       .  S
C1565      C1566   1.413       .  A
C1566      O1570   1.372       .  S
C1567      C1572   1.407       .  A
C1567      C1576   1.401       .  A
O1568      H1584   0.992       .  S
O1570      H1581   0.992       .  S
C1572      C1573   1.397       .  A
C1572      O1577   1.372       .  S
C1573      C1574   1.408       .  A
C1573      H1578   1.083       .  S
C1574      C1575   1.415       .  A
C1575      C1576   1.401       .  A
C1575      O1579   1.371       .  S
C1576      H1580   1.084       .  S
O1577      H1582   0.992       .  S
O1579      H1583   0.992       .  S
C1585      C1586   1.401       .  A
C1585      C1590   1.398       .  A
C1585      H1595   1.084       .  S
C1586      C1591   1.482       .  S
C1586      C1587   1.409       .  A
C1587      C1588   1.402       .  A
C1587      O1592   1.371       .  S
C1588      C1589   1.406       .  A
C1588      H1593   1.083       .  S
C1589      C1590   1.414       .  A
C1590      O1594   1.372       .  S
C1591      C1596   1.406       .  A
C1591      C1600   1.404       .  A
O1592      H1608   0.992       .  S
O1594      H1605   0.992       .  S
C1596      C1597   1.398       .  A
C1596      O1601   1.372       .  S
C1597      C1598   1.407       .  A
C1597      H1602   1.083       .  S
C1598      C1599   1.413       .  A
C1599      C1600   1.403       .  A
C1599      O1603   1.371       .  S
C1600      H1604   1.084       .  S
O1601      H1606   0.992       .  S
O1603      H1607   0.991       .  S
C1609      C1610   1.404       .  A
C1609      C1614   1.399       .  A
C1609      H1619   1.084       .  S
C1610      C1615   1.485       .  S
C1610      C1611   1.409       .  A
C1611      C1612   1.401       .  A
C1611      O1616   1.371       .  S
C1612      C1613   1.405       .  A
C1612      H1617   1.084       .  S
C1613      C1614   1.411       .  A
C1614      O1618   1.372       .  S
C1615      C1620   1.407       .  A
C1615      C1624   1.404       .  A
O1616      H1632   0.992       .  S
O1618      H1629   0.992       .  S
C1620      C1621   1.398       .  A
C1620      O1625   1.372       .  S
C1621      C1622   1.409       .  A
C1621      H1626   1.083       .  S
C1622      C1623   1.414       .  A
C1623      C1624   1.403       .  A
C1623      O1627   1.371       .  S
C1624      H1628   1.084       .  S
O1625      H1630   0.992       .  S
O1627      H1631   0.992       .  S
C1633      C1634   1.401       .  A
C1633      C1638   1.399       .  A
C1633      H1643   1.084       .  S
C1634      C1639   1.479       .  S
C1634      C1635   1.407       .  A
C1635      C1636   1.401       .  A
C1635      O1640   1.371       .  S
C1636      C1637   1.407       .  A
C1636      H1641   1.083       .  S
C1637      C1638   1.412       .  A
C1638      O1642   1.372       .  S
C1639      C1644   1.406       .  A
C1639      C1648   1.399       .  A
O1640      H1656   0.992       .  S
O1642      H1653   0.992       .  S
C1644      C1645   1.405       .  A
C1644      O1649   1.371       .  S
C1645      C1646   1.409       .  A
C1645      H1650   1.083       .  S
C1646      C1647   1.416       .  A
C1647      C1648   1.397       .  A
C1647      O1651   1.372       .  S
C1648      H1652   1.084       .  S
O1649      H1654   0.992       .  S
O1651      H1655   0.992       .  S
C1657      C1658   1.403       .  A
C1657      C1662   1.403       .  A
C1657      H1667   1.084       .  S
C1658      C1663   1.475       .  S
C1658      C1659   1.405       .  A
C1659      C1660   1.393       .  A
C1659      O1664   1.372       .  S
C1660      C1661   1.407       .  A
C1660      H1665   1.084       .  S
C1661      C1662   1.413       .  A
C1662      O1666   1.371       .  S
C1663      C1668   1.405   1_554  A
C1663      C1672   1.401   1_554  A
O1664      H1680   0.992       .  S
O1666      H1677   0.992       .  S
C1668      C1669   1.398       .  A
C1668      O1673   1.372   1_556  S
C1669      C1670   1.407       .  A
C1669      H1674   1.083       .  S
C1670      C1671   1.414       .  A
C1671      C1672   1.398       .  A
C1671      O1675   1.372       .  S
C1672      H1676   1.084       .  S
O1673      H1678   0.992       .  S
O1675      H1679   0.992       .  S
C1681      C1682   1.402       .  A
C1681      C1686   1.399       .  A
C1681      H1691   1.083       .  S
C1682      C1687   1.490       .  S
C1682      C1683   1.410       .  A
C1683      C1684   1.405       .  A
C1683      O1688   1.372       .  S
C1684      C1685   1.409       .  A
C1684      H1689   1.083       .  S
C1685      C1686   1.417       .  A
C1686      O1690   1.372       .  S
C1687      C1692   1.410       .  A
C1687      C1696   1.406       .  A
O1688      H1704   0.992       .  S
O1690      H1701   0.992       .  S
C1692      C1693   1.401       .  A
C1692      O1697   1.372       .  S
C1693      C1694   1.404       .  A
C1693      H1698   1.084       .  S
C1694      C1695   1.410       .  A
C1695      C1696   1.404       .  A
C1695      O1699   1.371       .  S
C1696      H1700   1.083       .  S
O1697      H1702   0.992       .  S
O1699      H1703   0.992       .  S
C1705      C1706   1.403       .  A
C1705      C1710   1.404       .  A
C1705      H1715   1.083       .  S
C1706      C1711   1.482   1_545  S
C1706      C1707   1.407       .  A
C1707      C1708   1.399       .  A
C1707      O1712   1.373       .  S
C1708      C1709   1.405       .  A
C1708      H1713   1.084       .  S
C1709      C1710   1.411       .  A
C1710      O1714   1.371       .  S
C1711      C1716   1.407       .  A
C1711      C1720   1.405       .  A
O1712      H1728   0.992       .  S
O1714      H1725   0.992       .  S
C1716      C1717   1.394       .  A
C1716      O1721   1.372       .  S
C1717      C1718   1.405       .  A
C1717      H1722   1.084       .  S
C1718      C1719   1.411       .  A
C1719      C1720   1.406       .  A
C1719      O1723   1.371       .  S
C1720      H1724   1.083       .  S
O1721      H1726   0.992       .  S
O1723      H1727   0.992       .  S
C1729      C1730   1.406       .  A
C1729      C1734   1.405       .  A
C1729      H1739   1.083       .  S
C1730      C1735   1.489       .  S
C1730      C1731   1.408       .  A
C1731      C1732   1.397       .  A
C1731      O1736   1.372       .  S
C1732      C1733   1.407       .  A
C1732      H1737   1.083       .  S
C1733      C1734   1.413       .  A
C1734      O1738   1.371       .  S
C1735      C1740   1.409       .  A
C1735      C1744   1.403       .  A
O1736      H1752   0.992       .  S
O1738      H1749   0.991       .  S
C1740      C1741   1.405       .  A
C1740      O1745   1.372       .  S
C1741      C1742   1.408       .  A
C1741      H1746   1.083       .  S
C1742      C1743   1.414       .  A
C1743      C1744   1.400       .  A
C1743      O1747   1.372       .  S
C1744      H1748   1.084       .  S
O1745      H1750   0.992       .  S
O1747      H1751   0.992       .  S
C1753      C1754   1.404       .  A
C1753      C1758   1.408       .  A
C1753      H1763   1.083       .  S
C1754      C1759   1.488   1_545  S
C1754      C1755   1.408       .  A
C1755      C1756   1.395       .  A
C1755      O1760   1.372       .  S
C1756      C1757   1.407       .  A
C1756      H1761   1.083       .  S
C1757      C1758   1.416       .  A
C1758      O1762   1.371       .  S
C1759      C1764   1.411       .  A
C1759      C1768   1.400       .  A
O1760      H1776   0.992       .  S
O1762      H1773   0.992       .  S
C1764      C1765   1.410       .  A
C1764      O1769   1.371       .  S
C1765      C1766   1.408       .  A
C1765      H1770   1.083       .  S
C1766      C1767   1.414       .  A
C1767      C1768   1.394       .  A
C1767      O1771   1.372       .  S
C1768      H1772   1.084       .  S
O1769      H1774   0.992       .  S
O1771      H1775   0.992       .  S
C1777      C1778   1.402       .  A
C1777      C1782   1.405       .  A
C1777      H1787   1.083       .  S
C1778      C1783   1.476   1_556  S
C1778      C1779   1.403       .  A
C1779      C1780   1.395       .  A
C1779      O1784   1.373       .  S
C1780      C1781   1.408       .  A
C1780      H1785   1.083       .  S
C1781      C1782   1.415       .  A
C1782      O1786   1.371       .  S
C1783      C1788   1.404       .  A
C1783      C1792   1.400       .  A
O1784      H1800   0.992       .  S
O1786      H1797   0.992       .  S
C1788      C1789   1.395       .  A
C1788      O1793   1.372   1_554  S
C1789      C1790   1.407       .  A
C1789      H1794   1.083       .  S
C1790      C1791   1.417       .  A
C1791      C1792   1.406       .  A
C1791      O1795   1.372       .  S
C1792      H1796   1.083       .  S
O1793      H1798   0.992       .  S
O1795      H1799   0.992       .  S
C1801      C1802   1.404       .  A
C1801      C1806   1.398       .  A
C1801      H1811   1.083       .  S
C1802      C1807   1.487       .  S
C1802      C1803   1.410       .  A
C1803      C1804   1.401       .  A
C1803      O1808   1.371       .  S
C1804      C1805   1.406       .  A
C1804      H1809   1.084       .  S
C1805      C1806   1.412       .  A
C1806      O1810   1.372       .  S
C1807      C1812   1.409       .  A
C1807      C1816   1.404       .  A
O1808      H1824   0.992       .  S
O1810      H1821   0.992       .  S
C1812      C1813   1.403       .  A
C1812      O1817   1.373       .  S
C1813      C1814   1.406       .  A
C1813      H1818   1.083       .  S
C1814      C1815   1.412       .  A
C1815      C1816   1.400       .  A
C1815      O1819   1.371       .  S
C1816      H1820   1.083       .  S
O1817      H1822   0.992       .  S
O1819      H1823   0.992       .  S
C1825      C1826   1.408       .  A
C1825      C1830   1.405       .  A
C1825      H1835   1.083       .  S
C1826      C1831   1.490       .  S
C1826      C1827   1.410       .  A
C1827      C1828   1.398       .  A
C1827      O1832   1.372       .  S
C1828      C1829   1.403       .  A
C1828      H1833   1.084       .  S
C1829      C1830   1.408       .  A
C1830      O1834   1.372       .  S
C1831      C1836   1.408       .  A
C1831      C1840   1.404       .  A
O1832      H1848   0.992       .  S
O1834      H1845   0.992       .  S
C1836      C1837   1.402       .  A
C1836      O1841   1.372       .  S
C1837      C1838   1.409       .  A
C1837      H1842   1.083       .  S
C1838      C1839   1.415       .  A
C1839      C1840   1.401       .  A
C1839      O1843   1.372       .  S
C1840      H1844   1.084       .  S
O1841      H1846   0.992       .  S
O1843      H1847   0.992       .  S
C1849      C1850   1.402       .  A
C1849      C1854   1.401       .  A
C1849      H1859   1.084       .  S
C1850      C1855   1.482       .  S
C1850      C1851   1.406       .  A
C1851      C1852   1.400       .  A
C1851      O1856   1.371       .  S
C1852      C1853   1.408       .  A
C1852      H1857   1.083       .  S
C1853      C1854   1.416       .  A
C1854      O1858   1.372       .  S
C1855      C1860   1.406       .  A
C1855      C1864   1.400       .  A
O1856      H1872   0.992       .  S
O1858      H1869   0.992       .  S
C1860      C1861   1.405       .  A
C1860      O1865   1.371       .  S
C1861      C1862   1.409       .  A
C1861      H1866   1.083       .  S
C1862      C1863   1.418       .  A
C1863      C1864   1.398       .  A
C1863      O1867   1.372       .  S
C1864      H1868   1.084       .  S
O1865      H1870   0.992       .  S
O1867      H1871   0.992       .  S
C1873      C1874   1.403       .  A
C1873      C1878   1.400       .  A
C1873      H1883   1.084       .  S
C1874      C1879   1.482       .  S
C1874      C1875   1.408       .  A
C1875      C1876   1.398       .  A
C1875      O1880   1.372       .  S
C1876      C1877   1.407       .  A
C1876      H1881   1.084       .  S
C1877      C1878   1.412       .  A
C1878      O1882   1.371       .  S
C1879      C1884   1.409       .  A
C1879      C1888   1.402       .  A
O1880      H1896   0.992       .  S
O1882      H1893   0.992       .  S
C1884      C1885   1.396       .  A
C1884      O1889   1.372       .  S
C1885      C1886   1.406       .  A
C1885      H1890   1.084       .  S
C1886      C1887   1.415       .  A
C1887      C1888   1.402       .  A
C1887      O1891   1.371       .  S
C1888      H1892   1.084       .  S
O1889      H1894   0.992       .  S
O1891      H1895   0.992       .  S
C1897      C1898   1.402       .  A
C1897      C1902   1.395       .  A
C1897      H1907   1.083   1_554  S
C1898      C1903   1.483       .  S
C1898      C1899   1.410       .  A
C1899      C1900   1.400       .  A
C1899      O1904   1.372       .  S
C1900      C1901   1.405       .  A
C1900      H1905   1.084       .  S
C1901      C1902   1.412       .  A
C1902      O1906   1.372   1_554  S
C1903      C1908   1.409       .  A
C1903      C1912   1.403       .  A
O1904      H1920   0.992       .  S
O1906      H1917   0.992       .  S
C1908      C1909   1.397       .  A
C1908      O1913   1.373       .  S
C1909      C1910   1.405       .  A
C1909      H1914   1.083       .  S
C1910      C1911   1.414       .  A
C1911      C1912   1.400       .  A
C1911      O1915   1.372       .  S
C1912      H1916   1.083       .  S
O1913      H1918   0.992       .  S
O1915      H1919   0.992       .  S
C1921      C1922   1.401       .  A
C1921      C1926   1.401       .  A
C1921      H1931   1.084       .  S
C1922      C1927   1.479       .  S
C1922      C1923   1.406       .  A
C1923      C1924   1.398       .  A
C1923      O1928   1.372       .  S
C1924      C1925   1.408       .  A
C1924      H1929   1.083       .  S
C1925      C1926   1.416       .  A
C1926      O1930   1.371       .  S
C1927      C1932   1.405       .  A
C1927      C1936   1.402       .  A
O1928      H1944   0.992       .  S
O1930      H1941   0.992       .  S
C1932      C1933   1.398       .  A
C1932      O1937   1.372       .  S
C1933      C1934   1.408       .  A
C1933      H1938   1.083       .  S
C1934      C1935   1.415       .  A
C1935      C1936   1.401       .  A
C1935      O1939   1.371       .  S
C1936      H1940   1.084       .  S
O1937      H1942   0.992       .  S
O1939      H1943   0.992       .  S
C1945      C1946   1.405       .  A
C1945      C1950   1.400       .  A
C1945      H1955   1.083       .  S
C1946      C1951   1.486       .  S
C1946      C1947   1.409       .  A
C1947      C1948   1.401       .  A
C1947      O1952   1.371       .  S
C1948      C1949   1.406       .  A
C1948      H1953   1.083       .  S
C1949      C1950   1.411       .  A
C1950      O1954   1.372       .  S
C1951      C1956   1.408       .  A
C1951      C1960   1.404       .  A
O1952      H1968   0.992       .  S
O1954      H1965   0.992       .  S
C1956      C1957   1.404       .  A
C1956      O1961   1.373       .  S
C1957      C1958   1.408       .  A
C1957      H1962   1.083       .  S
C1958      C1959   1.412       .  A
C1959      C1960   1.397       .  A
C1959      O1963   1.373       .  S
C1960      H1964   1.083       .  S
O1961      H1966   0.992       .  S
O1963      H1967   0.992       .  S
C1969      C1970   1.402       .  A
C1969      C1974   1.401       .  A
C1969      H1979   1.084       .  S
C1970      C1975   1.480       .  S
C1970      C1971   1.408       .  A
C1971      C1972   1.402       .  A
C1971      O1976   1.371       .  S
C1972      C1973   1.405       .  A
C1972      H1977   1.084       .  S
C1973      C1974   1.412       .  A
C1974      O1978   1.372       .  S
C1975      C1980   1.405       .  A
C1975      C1984   1.400       .  A
O1976      H1992   0.992       .  S
O1978      H1989   0.992       .  S
C1980      C1981   1.404       .  A
C1980      O1985   1.371       .  S
C1981      C1982   1.410       .  A
C1981      H1986   1.083       .  S
C1982      C1983   1.415       .  A
C1983      C1984   1.398       .  A
C1983      O1987   1.372       .  S
C1984      H1988   1.084       .  S
O1985      H1990   0.992       .  S
O1987      H1991   0.992       .  S
C1993      C1994   1.400       .  A
C1993      C1998   1.398       .  A
C1993      H2003   1.084       .  S
C1994      C1999   1.483       .  S
C1994      C1995   1.407       .  A
C1995      C1996   1.404       .  A
C1995      O2000   1.371       .  S
C1996      C1997   1.409       .  A
C1996      H2001   1.083       .  S
C1997      C1998   1.417       .  A
C1998      O2002   1.372       .  S
C1999      C2004   1.409       .  A
C1999      C2008   1.402       .  A
O2000      H2016   0.992       .  S
O2002      H2013   0.992       .  S
C2004      C2005   1.403       .  A
C2004      O2009   1.372       .  S
C2005      C2006   1.405       .  A
C2005      H2010   1.084       .  S
C2006      C2007   1.411       .  A
C2007      C2008   1.399       .  A
C2007      O2011   1.372       .  S
C2008      H2012   1.084       .  S
O2009      H2014   0.992       .  S
O2011      H2015   0.992       .  S
C2017      C2018   1.401       .  A
C2017      C2022   1.398       .  A
C2017      H2027   1.084       .  S
C2018      C2023   1.483       .  S
C2018      C2019   1.408       .  A
C2019      C2020   1.402       .  A
C2019      O2024   1.372       .  S
C2020      C2021   1.408       .  A
C2020      H2025   1.083       .  S
C2021      C2022   1.414       .  A
C2022      O2026   1.372   1_556  S
C2023      C2028   1.408       .  A
C2023      C2032   1.403       .  A
O2024      H2040   0.992       .  S
O2026      H2037   0.992       .  S
C2028      C2029   1.399       .  A
C2028      O2033   1.372       .  S
C2029      C2030   1.407       .  A
C2029      H2034   1.083       .  S
C2030      C2031   1.413       .  A
C2031      C2032   1.401       .  A
C2031      O2035   1.372       .  S
C2032      H2036   1.084       .  S
O2033      H2038   0.992       .  S
O2035      H2039   0.992   1_556  S
C2041      C2042   1.403   1_556  A
C2041      C2046   1.404       .  A
C2041      H2051   1.084       .  S
C2042      C2047   1.479   1_565  S
C2042      C2043   1.406       .  A
C2043      C2044   1.396       .  A
C2043      O2048   1.373       .  S
C2044      C2045   1.405       .  A
C2044      H2049   1.084       .  S
C2045      C2046   1.412   1_554  A
C2046      O2050   1.371       .  S
C2047      C2052   1.408   1_554  A
C2047      C2056   1.403       .  A
O2048      H2064   0.992       .  S
O2050      H2061   0.992       .  S
C2052      C2053   1.394       .  A
C2052      O2057   1.372       .  S
C2053      C2054   1.403   1_556  A
C2053      H2058   1.084       .  S
C2054      C2055   1.411       .  A
C2055      C2056   1.403       .  A
C2055      O2059   1.371       .  S
C2056      H2060   1.084       .  S
O2057      H2062   0.992       .  S
O2059      H2063   0.992       .  S
C2065      C2066   1.402       .  A
C2065      C2070   1.402       .  A
C2065      H2075   1.084       .  S
C2066      C2071   1.482       .  S
C2066      C2067   1.407       .  A
C2067      C2068   1.398       .  A
C2067      O2072   1.372       .  S
C2068      C2069   1.407       .  A
C2068      H2073   1.083       .  S
C2069      C2070   1.416       .  A
C2070      O2074   1.371       .  S
C2071      C2076   1.407       .  A
C2071      C2080   1.402       .  A
O2072      H2088   0.992       .  S
O2074      H2085   0.992       .  S
C2076      C2077   1.399       .  A
C2076      O2081   1.372       .  S
C2077      C2078   1.408       .  A
C2077      H2082   1.083       .  S
C2078      C2079   1.415       .  A
C2079      C2080   1.402       .  A
C2079      O2083   1.371       .  S
C2080      H2084   1.084       .  S
O2081      H2086   0.992       .  S
O2083      H2087   0.992       .  S
C2089      C2090   1.403       .  A
C2089      C2094   1.398       .  A
C2089      H2099   1.083       .  S
C2090      C2095   1.483       .  S
C2090      C2091   1.408       .  A
C2091      C2092   1.400       .  A
C2091      O2096   1.371       .  S
C2092      C2093   1.407       .  A
C2092      H2097   1.083       .  S
C2093      C2094   1.411       .  A
C2094      O2098   1.373       .  S
C2095      C2100   1.408       .  A
C2095      C2104   1.403       .  A
O2096      H2112   0.992       .  S
O2098      H2109   0.992       .  S
C2100      C2101   1.403       .  A
C2100      O2105   1.373       .  S
C2101      C2102   1.407       .  A
C2101      H2106   1.083       .  S
C2102      C2103   1.413       .  A
C2103      C2104   1.397       .  A
C2103      O2107   1.372       .  S
C2104      H2108   1.084       .  S
O2105      H2110   0.992       .  S
O2107      H2111   0.992       .  S
C2113      C2114   1.400       .  A
C2113      C2118   1.396       .  A
C2113      H2123   1.084       .  S
C2114      C2119   1.477       .  S
C2114      C2115   1.408       .  A
C2115      C2116   1.399       .  A
C2115      O2120   1.372       .  S
C2116      C2117   1.406       .  A
C2116      H2121   1.084       .  S
C2117      C2118   1.411       .  A
C2118      O2122   1.372       .  S
C2119      C2124   1.407       .  A
C2119      C2128   1.401       .  A
O2120      H2136   0.992       .  S
O2122      H2133   0.992       .  S
C2124      C2125   1.397       .  A
C2124      O2129   1.372       .  S
C2125      C2126   1.407       .  A
C2125      H2130   1.083       .  S
C2126      C2127   1.412       .  A
C2127      C2128   1.398       .  A
C2127      O2131   1.371       .  S
C2128      H2132   1.084       .  S
O2129      H2134   0.992       .  S
O2131      H2135   0.991       .  S
C2137      C2138   1.405       .  A
C2137      C2142   1.405       .  A
C2137      H2147   1.083       .  S
C2138      C2143   1.484   1_545  S
C2138      C2139   1.408       .  A
C2139      C2140   1.398       .  A
C2139      O2144   1.374       .  S
C2140      C2141   1.405       .  A
C2140      H2145   1.084       .  S
C2141      C2142   1.410       .  A
C2142      O2146   1.371       .  S
C2143      C2148   1.408       .  A
C2143      C2152   1.404       .  A
O2144      H2160   0.992       .  S
O2146      H2157   0.992       .  S
C2148      C2149   1.396       .  A
C2148      O2153   1.372       .  S
C2149      C2150   1.405       .  A
C2149      H2154   1.084       .  S
C2150      C2151   1.413       .  A
C2151      C2152   1.404       .  A
C2151      O2155   1.371       .  S
C2152      H2156   1.083       .  S
O2153      H2158   0.992       .  S
O2155      H2159   0.992       .  S
C2161      C2162   1.402       .  A
C2161      C2166   1.398       .  A
C2161      H2171   1.083       .  S
C2162      C2167   1.482       .  S
C2162      C2163   1.408       .  A
C2163      C2164   1.400       .  A
C2163      O2168   1.371       .  S
C2164      C2165   1.407       .  A
C2164      H2169   1.083       .  S
C2165      C2166   1.413       .  A
C2166      O2170   1.372       .  S
C2167      C2172   1.408       .  A
C2167      C2176   1.401       .  A
O2168      H2184   0.992       .  S
O2170      H2181   0.992       .  S
C2172      C2173   1.403       .  A
C2172      O2177   1.373       .  S
C2173      C2174   1.408       .  A
C2173      H2178   1.083       .  S
C2174      C2175   1.415       .  A
C2175      C2176   1.396       .  A
C2175      O2179   1.372       .  S
C2176      H2180   1.084       .  S
O2177      H2182   0.992       .  S
O2179      H2183   0.992       .  S
C2185      C2186   1.400       .  A
C2185      C2190   1.397       .  A
C2185      H2195   1.084       .  S
C2186      C2191   1.478       .  S
C2186      C2187   1.407       .  A
C2187      C2188   1.401       .  A
C2187      O2192   1.372       .  S
C2188      C2189   1.408       .  A
C2188      H2193   1.083       .  S
C2189      C2190   1.415       .  A
C2190      O2194   1.372       .  S
C2191      C2196   1.407       .  A
C2191      C2200   1.402       .  A
O2192      H2208   0.992       .  S
O2194      H2205   0.992       .  S
C2196      C2197   1.401       .  A
C2196      O2201   1.372       .  S
C2197      C2198   1.405       .  A
C2197      H2202   1.084       .  S
C2198      C2199   1.412       .  A
C2199      C2200   1.397       .  A
C2199      O2203   1.372       .  S
C2200      H2204   1.084       .  S
O2201      H2206   0.992       .  S
O2203      H2207   0.992       .  S
C2209      C2210   1.405       .  A
C2209      C2214   1.402       .  A
C2209      H2219   1.083       .  S
C2210      C2215   1.483       .  S
C2210      C2211   1.407       .  A
C2211      C2212   1.398       .  A
C2211      O2216   1.372       .  S
C2212      C2213   1.407       .  A
C2212      H2217   1.084       .  S
C2213      C2214   1.411       .  A
C2214      O2218   1.372       .  S
C2215      C2220   1.408       .  A
C2215      C2224   1.403       .  A
O2216      H2232   0.992       .  S
O2218      H2229   0.992       .  S
C2220      C2221   1.397       .  A
C2220      O2225   1.372       .  S
C2221      C2222   1.405       .  A
C2221      H2226   1.083       .  S
C2222      C2223   1.414       .  A
C2223      C2224   1.403       .  A
C2223      O2227   1.372       .  S
C2224      H2228   1.084       .  S
O2225      H2230   0.992       .  S
O2227      H2231   0.992       .  S
C2233      C2234   1.403       .  A
C2233      C2238   1.399       .  A
C2233      H2243   1.083       .  S
C2234      C2239   1.482       .  S
C2234      C2235   1.408       .  A
C2235      C2236   1.401       .  A
C2235      O2240   1.371       .  S
C2236      C2237   1.407       .  A
C2236      H2241   1.083       .  S
C2237      C2238   1.411       .  A
C2238      O2242   1.373       .  S
C2239      C2244   1.407       .  A
C2239      C2248   1.402       .  A
O2240      H2256   0.992       .  S
O2242      H2253   0.992       .  S
C2244      C2245   1.404       .  A
C2244      O2249   1.373       .  S
C2245      C2246   1.409       .  A
C2245      H2250   1.083       .  S
C2246      C2247   1.414       .  A
C2247      C2248   1.396       .  A
C2247      O2251   1.372       .  S
C2248      H2252   1.084       .  S
O2249      H2254   0.992       .  S
O2251      H2255   0.992       .  S
