geometry optimzed in LAMMPS
_audit_creation_date              2020-12-01 
_audit_creation_method            'lammps2cif' 
_symmetry_space_group_name_H-M    'P1' 
_symmetry_Int_Tables_number       1 
_symmetry_cell_setting            triclinic 
loop_ 
_symmetry_equiv_pos_as_xyz 
  x,y,z 
_cell_length_a                    34.45323143 
_cell_length_b                    34.60537367969335 
_cell_length_c                    29.25619352864737 
_cell_angle_alpha                 90.15400361785123 
_cell_angle_beta                  89.3775832163497 
_cell_angle_gamma                 89.92903996244301 
loop_ 
_atom_site_label 
_atom_site_type_symbol 
_atom_site_fract_x 
_atom_site_fract_y 
_atom_site_fract_z 
_atom_site_charge 
O1          O  0.46109250  0.80196982  0.18644000    -0.85100
O2          O  0.47700274  0.84589626  0.11168050    -0.82100
C3          C  0.50681689  0.86235734  0.12707368     0.98400
O4          O  0.53867783  0.84412341  0.12933750    -0.82200
O5          O  0.58920764  0.77922504  0.13521143    -0.84800
C6          C  0.58748060  0.76594482  0.17547405     1.02900
O7          O  0.55581651  0.75417329  0.19191122    -0.77600
O8          O  0.47860484  0.74255389  0.20291979    -0.77800
C9          C  0.46828967  0.77617655  0.21549539     1.02800
O10         O  0.43208832  0.74142852  0.12950803    -0.85100
O11         O  0.45875850  0.78182507  0.05325924    -0.82200
C12         C  0.48284753  0.79813600  0.02675104     0.98400
O13         O  0.51242260  0.81500531  0.04258517    -0.82200
O14         O  0.55659520  0.74985191  0.05280916    -0.84800
C15         C  0.56486625  0.71689994  0.06837654     1.02900
O16         O  0.55721120  0.70832182  0.10956121    -0.77600
O17         O  0.47864327  0.70021036  0.11589930    -0.77800
C18         C  0.44318690  0.70881941  0.11533636     1.02800
Cr19       Cr  0.46049521  0.79132287  0.12020383     1.93700
Cr20       Cr  0.54650653  0.79565467  0.09249431     1.93200
Cr21       Cr  0.51672772  0.72928083  0.15290213     1.39100
O22         O  0.50820032  0.77206919  0.12208867    -1.22900
O23         O  0.76425886  0.48010306  0.32585989    -0.85100
O24         O  0.83022046  0.51257683  0.35491397    -0.82100
C25         C  0.85269701  0.53772961  0.36994993     0.98400
O26         O  0.83991255  0.56535322  0.39421684    -0.82200
O27         O  0.77953408  0.60932499  0.35254850    -0.84800
C28         C  0.74549596  0.61929036  0.34190423     1.02900
O29         O  0.71685802  0.59918133  0.35473430    -0.77600
O30         O  0.73083259  0.53221280  0.30767240    -0.77800
C31         C  0.75043734  0.50293253  0.29594482     1.02800
O32         O  0.74367360  0.46753233  0.42284898    -0.85100
O33         O  0.80933785  0.49929972  0.45153216    -0.82200
C34         C  0.80352632  0.52490863  0.48221300     0.98400
O35         O  0.79141948  0.55807356  0.47220217    -0.82200
O36         O  0.73616489  0.60404489  0.43816441    -0.84800
C37         C  0.70592340  0.58656741  0.45218726     1.02900
O38         O  0.69506539  0.55551219  0.43342028    -0.77600
O39         O  0.69643236  0.48829647  0.38089635    -0.77800
C40         C  0.70972299  0.46428612  0.40897671     1.02800
Cr41       Cr  0.78508017  0.49348273  0.38879331     1.93700
Cr42       Cr  0.78524781  0.58099703  0.41176847     1.93200
Cr43       Cr  0.71342713  0.54324484  0.37070146     1.39100
O44         O  0.76169262  0.53905641  0.39041458    -1.22900
O45         O  0.51519886  0.24669287  0.69712860    -0.85100
O46         O  0.58223933  0.25561619  0.64989888    -0.82100
C47         C  0.60210429  0.22616956  0.66064072     0.98400
O48         O  0.59327802  0.19289360  0.64560980    -0.82200
O49         O  0.54703632  0.13441552  0.60099224    -0.84800
C50         C  0.52440569  0.12084206  0.63108792     1.02900
O51         O  0.50399448  0.14341585  0.65455974    -0.77600
O52         O  0.46627771  0.20703426  0.68562163    -0.77800
C53         C  0.48783047  0.22621177  0.71224540     1.02800
O54         O  0.47078823  0.27651112  0.62224519    -0.85100
O55         O  0.53768087  0.27841869  0.57083785    -0.82200
C56         C  0.56998162  0.26984036  0.55317353     0.98400
O57         O  0.58697366  0.23894757  0.56458485    -0.82200
O58         O  0.53452706  0.18703415  0.53011564    -0.84800
C59         C  0.50175219  0.17133681  0.52557310     1.02900
O60         O  0.48129213  0.16113461  0.55993605    -0.77600
O61         O  0.44576817  0.22467954  0.59143326    -0.77800
C62         C  0.44460000  0.26025257  0.59926234     1.02800
Cr63       Cr  0.52592782  0.26058906  0.63348195     1.93700
Cr64       Cr  0.56255449  0.18972446  0.58801487     1.93200
Cr65       Cr  0.47780272  0.18604981  0.62253809     1.39100
O66         O  0.52171487  0.21212081  0.61488091    -1.22900
O67         O  0.73683087  0.46373864  0.80368739    -0.85100
O68         O  0.71692220  0.39818327  0.85108269    -0.82100
C69         C  0.74593998  0.37773510  0.84056680     0.98400
O70         O  0.77924019  0.38765968  0.85367167    -0.82200
O71         O  0.83861787  0.43166866  0.89438985    -0.84800
C72         C  0.85273840  0.46002674  0.87236116     1.02900
O73         O  0.83187405  0.48784907  0.86056164    -0.77600
O74         O  0.76691515  0.51725355  0.82405507    -0.77800
C75         C  0.75662991  0.49311232  0.79330812     1.02800
O76         O  0.69716408  0.51063559  0.87065526    -0.85100
O77         O  0.69100113  0.44433512  0.92475025    -0.82200
C78         C  0.70039103  0.41414539  0.94627448     0.98400
O79         O  0.73239774  0.39676427  0.93779028    -0.82200
O80         O  0.78907989  0.44107647  0.97284039    -0.84800
C81         C  0.79881478  0.47481996  0.98372155     1.02900
O82         O  0.80396819  0.50086873  0.95377787    -0.77600
O83         O  0.73876583  0.52897592  0.92094375    -0.77800
C84         C  0.70580170  0.53173611  0.90413077     1.02800
Cr85       Cr  0.71422470  0.45485754  0.86437518     1.93700
Cr86       Cr  0.78338791  0.41747188  0.91224144     1.93200
Cr87       Cr  0.78349219  0.50526713  0.88949971     1.39100
O88         O  0.76106766  0.45918137  0.88885257    -1.22900
O89         O  0.49853219  0.18544001  0.18724782    -0.85100
O90         O  0.48536814  0.14172041  0.11102892    -0.82100
C91         C  0.45720873  0.12416634  0.12912398     0.98400
O92         O  0.42479115  0.14126908  0.13385266    -0.82200
O93         O  0.37116918  0.20466139  0.13976107    -0.84800
C94         C  0.37129156  0.22163076  0.17807291     1.02900
O95         O  0.40225740  0.23485135  0.19411907    -0.77600
O96         O  0.47957792  0.24456463  0.20480694    -0.77800
C97         C  0.48969307  0.21081313  0.21676990     1.02800
O98         O  0.52764140  0.24604316  0.13150008    -0.85100
O99         O  0.50074777  0.20715716  0.05398300    -0.82200
C100        C  0.47643491  0.19083760  0.02807310     0.98400
O101        O  0.44877829  0.17126787  0.04510412    -0.82200
O102        O  0.40122549  0.23365586  0.05684895    -0.84800
C103        C  0.39568302  0.26790989  0.07046478     1.02900
O104        O  0.40435704  0.27848272  0.11049900    -0.77600
O105        O  0.48201783  0.28732578  0.11741940    -0.77800
C106        C  0.51740297  0.27855946  0.11699417     1.02800
Cr107      Cr  0.49982802  0.19647781  0.12097201     1.93700
Cr108      Cr  0.41418021  0.18905883  0.09650456     1.93200
Cr109      Cr  0.44290811  0.25813999  0.15457401     1.39100
O110        O  0.45178552  0.21473304  0.12428873    -1.22900
O111        O  0.18105262  0.50190073  0.32446809    -0.85100
O112        O  0.13225431  0.49358488  0.40016743    -0.82100
C113        C  0.11241559  0.46610897  0.38530035     0.98400
O114        O  0.12813473  0.43341757  0.37888595    -0.82200
O115        O  0.18920566  0.37743293  0.37197973    -0.84800
C116        C  0.21009679  0.37752769  0.33602884     1.02900
O117        O  0.22902944  0.40692487  0.32414838    -0.77600
O118        O  0.24191711  0.48328224  0.31504439    -0.77800
C119        C  0.20969705  0.49390657  0.29865197     1.02800
O120        O  0.23878539  0.52984435  0.38314084    -0.85100
O121        O  0.19441596  0.50670943  0.45832068    -0.82200
C122        C  0.17592522  0.48377785  0.48428467     0.98400
O123        O  0.15805996  0.45462309  0.46841231    -0.82200
O124        O  0.21643456  0.40178103  0.45849997    -0.84800
C125        C  0.25143761  0.39509173  0.44816677     1.02900
O126        O  0.26624381  0.40640556  0.41098618    -0.77600
O127        O  0.27681212  0.48419595  0.40615178    -0.77800
C128        C  0.26934830  0.51957287  0.40238402     1.02800
Cr129      Cr  0.18780485  0.50444797  0.39142312     1.93700
Cr130      Cr  0.17486977  0.41959497  0.41687966     1.93200
Cr131      Cr  0.25008402  0.44605013  0.36609610     1.39100
O132        O  0.20428930  0.45593962  0.39137093    -1.22900
O133        O  0.24159431  0.49086919  0.81154411    -0.85100
O134        O  0.23241902  0.56815411  0.81932932    -0.82100
C135        C  0.21554720  0.59879420  0.83158217     0.98400
O136        O  0.19673867  0.60060949  0.86904106    -0.82200
O137        O  0.13348244  0.54728376  0.87819106    -0.84800
C138        C  0.11640005  0.51536098  0.88510836     1.02900
O139        O  0.13490529  0.48753061  0.90167953    -0.77600
O140        O  0.18083727  0.47388181  0.82532687    -0.77800
C141        C  0.20834059  0.48080955  0.79758535     1.02800
O142        O  0.27998562  0.49058655  0.90110234    -0.85100
O143        O  0.27256499  0.56849304  0.90471943    -0.82200
C144        C  0.25988599  0.57948518  0.94324990     0.98400
O145        O  0.22487831  0.57475546  0.95493071    -0.82200
O146        O  0.16384193  0.52616114  0.96729906    -0.84800
C147        C  0.18157424  0.49727298  0.98393317     1.02900
O148        O  0.19898917  0.47315929  0.95834919    -0.77600
O149        O  0.23994625  0.44535451  0.88210763    -0.77800
C150        C  0.27160029  0.45532400  0.89923619     1.02800
Cr151      Cr  0.25335042  0.52882658  0.86120957     1.93700
Cr152      Cr  0.18141071  0.55943286  0.91482803     1.93200
Cr153      Cr  0.18999750  0.47342218  0.89171688     1.39100
O154        O  0.20825705  0.52126954  0.88888635    -1.22900
O155        O  0.44200651  0.74512143  0.69693408    -0.85100
O156        O  0.37921536  0.73009722  0.64538774    -0.82100
C157        C  0.35730090  0.75821914  0.65544287     0.98400
O158        O  0.36621083  0.79211980  0.64280094    -0.82200
O159        O  0.41227168  0.85280406  0.60163016    -0.84800
C160        C  0.43541079  0.86720737  0.63023995     1.02900
O161        O  0.45782970  0.84571213  0.65192036    -0.77600
O162        O  0.49319095  0.78207836  0.68497514    -0.77800
C163        C  0.46936307  0.76538322  0.71184481     1.02800
O164        O  0.49241547  0.71324989  0.62849792    -0.85100
O165        O  0.42947353  0.70825821  0.57168883    -0.82200
C166        C  0.39856185  0.71617688  0.55121307     0.98400
O167        O  0.37988721  0.74693999  0.56044542    -0.82200
O168        O  0.42881709  0.80239646  0.52908686    -0.84800
C169        C  0.46152168  0.81809335  0.52426601     1.02900
O170        O  0.48263233  0.82644350  0.55828375    -0.77600
O171        O  0.51670107  0.76233807  0.59142424    -0.77800
C172        C  0.51883681  0.72781202  0.60402159     1.02800
Cr173      Cr  0.43636366  0.72799353  0.63396896     1.93700
Cr174      Cr  0.39970784  0.79720565  0.58638688     1.93200
Cr175      Cr  0.48414701  0.80214430  0.62116125     1.39100
O176        O  0.44038219  0.77600770  0.61373449    -1.22900
C177        C  0.28526718  0.72971785  0.73293486     0.30000
C178        C  0.27112370  0.72126995  0.77723257    -0.36300
C179        C  0.24816782  0.68769287  0.78165106     0.16000
C180        C  0.24026631  0.66384857  0.74503666     0.21800
C181        C  0.25319472  0.67296358  0.70078767    -0.34400
C182        C  0.27555466  0.70659816  0.69632632     0.15900
O183        O  0.31281759  0.75504528  0.72222473    -0.26500
C184        C  0.32006731  0.74853830  0.67793906     0.05700
C185        C  0.29741691  0.71888370  0.66035606    -0.31300
O186        O  0.22471783  0.63063576  0.75759453    -0.23200
C187        C  0.22132068  0.63335094  0.80283345    -0.03200
C188        C  0.23520382  0.66841998  0.81968234    -0.17600
H189        H  0.27987893  0.73794577  0.80671284     0.18800
H190        H  0.24874079  0.65349410  0.67230692     0.18800
H191        H  0.30069548  0.70476760  0.62744392     0.18700
H192        H  0.23963650  0.67636569  0.85505787     0.14600
C193        C  0.37073637  0.63333338  0.49237734     0.30000
C194        C  0.37037141  0.59359589  0.48277770    -0.36300
C195        C  0.33930713  0.58049678  0.45646528     0.16000
C196        C  0.31088620  0.60502746  0.44053617     0.21800
C197        C  0.31126378  0.64467242  0.45003348    -0.34400
C198        C  0.34208736  0.65766510  0.47657682     0.15900
O199        O  0.39542555  0.65127898  0.51900117    -0.26500
C200        C  0.38231188  0.68742411  0.52030099     0.05700
C201        C  0.34924446  0.69317623  0.49448911    -0.31300
O202        O  0.28357395  0.58660789  0.41854469    -0.23200
C203        C  0.29445547  0.54980267  0.42034383    -0.03200
C204        C  0.32896339  0.54406703  0.44350869    -0.17600
H205        H  0.39207203  0.57412635  0.49611458     0.20400
H206        H  0.28843656  0.66381009  0.43872139     0.18800
H207        H  0.33199960  0.71918600  0.49128914     0.18700
H208        H  0.34345127  0.51707691  0.45098570     0.14600
C209        C  0.20598691  0.49703542  0.68063662     0.30000
C210        C  0.21657068  0.51542821  0.63983213    -0.36300
C211        C  0.19621120  0.50390708  0.60106573     0.16000
C212        C  0.16766686  0.47593869  0.60238277     0.21800
C213        C  0.15650217  0.45811515  0.64343501    -0.34400
C214        C  0.17667247  0.46988296  0.68232098     0.15900
O215        O  0.22168080  0.50302960  0.72069056    -0.26500
C216        C  0.20195356  0.47979034  0.74849364     0.05700
C217        C  0.17334975  0.45855202  0.72674320    -0.31300
O218        O  0.15521576  0.46684365  0.56144224    -0.23200
C219        C  0.17572945  0.48953987  0.53370172    -0.03200
C220        C  0.20141630  0.51357230  0.55642558    -0.17600
H221        H  0.23962856  0.53661840  0.63828326     0.20400
H222        H  0.13436524  0.43597242  0.64473849     0.18800
H223        H  0.15306926  0.43812091  0.74152701     0.18700
H224        H  0.22290824  0.53290840  0.54190944     0.14600
C225        C  0.18334470  0.50568064  0.18481557     0.30000
C226        C  0.16123920  0.51891293  0.14822528    -0.36300
C227        C  0.17235330  0.50511642  0.10503085     0.16000
C228        C  0.20285389  0.47972933  0.09816912     0.21800
C229        C  0.22514030  0.46664184  0.13475166    -0.34400
C230        C  0.21434169  0.48089365  0.17789185     0.15900
O231        O  0.17776366  0.51442976  0.22824264    -0.26500
C232        C  0.20600451  0.49551282  0.24911721     0.05700
C233        C  0.22969113  0.47428631  0.21957939    -0.31300
O234        O  0.20901106  0.47189159  0.05460014    -0.23200
C235        C  0.18218843  0.49269697  0.03349275    -0.03200
C236        C  0.15858952  0.51386883  0.06310904    -0.17600
H237        H  0.13731101  0.53886574  0.15302797     0.20400
H238        H  0.24951731  0.44724907  0.12986026     0.18800
H239        H  0.25381949  0.45560387  0.22792041     0.18700
H240        H  0.13573502  0.53407377  0.05475886     0.14600
C241        C  0.34823544  0.32269064  0.98714056     0.30000
C242        C  0.32299075  0.33011792  0.95086094    -0.36300
C243        C  0.31716071  0.36923729  0.94019450     0.16000
C244        C  0.33531894  0.39900060  0.96309987     0.21800
C245        C  0.36058327  0.39155706  0.99919194    -0.34400
C246        C  0.36583836  0.35258753  0.01037594     0.15900
O247        O  0.35660094  0.28848127  0.00448783    -0.26500
C248        C  0.37937682  0.29688305  0.03959983     0.05700
C249        C  0.38601661  0.33622317  0.04482874    -0.31300
O250        O  0.32345539  0.43341916  0.94986238    -0.23200
C251        C  0.29719344  0.42563449  0.91822094    -0.03200
C252        C  0.29219279  0.38621052  0.91067993    -0.17600
H253        H  0.30790837  0.30714369  0.93327932     0.20400
H254        H  0.37400656  0.41461776  0.01842769     0.18800
H255        H  0.40311245  0.35064684  0.07058960     0.18700
H256        H  0.27146633  0.37214916  0.88862972     0.14600
C257        C  0.29670507  0.25160385  0.25219081     0.30000
C258        C  0.28002314  0.26099900  0.29488330    -0.36300
C259        C  0.25178622  0.29041029  0.29494979     0.16000
C260        C  0.24157816  0.31003202  0.25588547     0.21800
C261        C  0.25700367  0.29953497  0.21298985    -0.34400
C262        C  0.28436824  0.26941775  0.21278435     0.15900
O263        O  0.32777413  0.22973859  0.24514632    -0.26500
C264        C  0.33432423  0.23234199  0.20029806     0.05700
C265        C  0.30805737  0.25644861  0.17853441    -0.31300
O266        O  0.22147648  0.34172704  0.26489385    -0.23200
C267        C  0.21737951  0.34173948  0.31021219    -0.03200
C268        C  0.23527906  0.31017509  0.33057573    -0.17600
H269        H  0.29033780  0.24833830  0.32618859     0.20400
H270        H  0.25038583  0.31559083  0.18248851     0.18800
H271        H  0.30936046  0.26668313  0.14359930     0.18700
H272        H  0.24059883  0.30589540  0.36663379     0.14600
C273        C  0.94747347  0.49304977  0.85324749     0.30000
C274        C  0.97571179  0.52204039  0.84675614    -0.36300
C275        C  0.01387435  0.51232396  0.85881058     0.16000
C276        C  0.02324155  0.47632266  0.87552939     0.21800
C277        C  0.99518255  0.44734213  0.88167122    -0.34400
C278        C  0.95710067  0.45716290  0.87012222     0.15900
O279        O  0.90968122  0.49727136  0.84885705    -0.26500
C280        C  0.89477665  0.46379957  0.86323443     0.05700
C281        C  0.92304296  0.43755631  0.87658221    -0.31300
O282        O  0.06003521  0.47354398  0.88624570    -0.23200
C283        C  0.07492888  0.50808818  0.87644460    -0.03200
C284        C  0.04750622  0.53367122  0.85920931    -0.17600
H285        H  0.96814813  0.55064142  0.83484001     0.20400
H286        H  0.00238361  0.41947704  0.89607401     0.18800
H287        H  0.91895372  0.40948900  0.89214144     0.18700
H288        H  0.05157190  0.56347797  0.84915162     0.14600
C289        C  0.64807180  0.35957946  0.02670531     0.30000
C290        C  0.64129725  0.32868970  0.05660920    -0.36300
C291        C  0.60297972  0.32433862  0.07237757     0.16000
C292        C  0.57316300  0.34861176  0.05970762     0.21800
C293        C  0.58009024  0.37997196  0.03034597    -0.34400
C294        C  0.61850060  0.38435899  0.01457219     0.15900
O295        O  0.68105835  0.36721509  0.00524540    -0.26500
C296        C  0.67263284  0.39751402  0.97928219     0.05700
C297        C  0.63420739  0.40956473  0.98390445    -0.31300
O298        O  0.53897557  0.33697525  0.07538174    -0.23200
C299        C  0.54717313  0.30494549  0.09853527    -0.03200
C300        C  0.58654888  0.29595330  0.09798697    -0.17600
H301        H  0.66401985  0.30854599  0.06559033     0.20400
H302        H  0.55691595  0.39875346  0.01920099     0.18800
H303        H  0.61957500  0.43243523  0.96567387     0.18700
H304        H  0.60068795  0.27078216  0.11212414     0.14600
C305        C  0.48853568  0.02815149  0.61118476     0.30000
C306        C  0.46849752  0.99994024  0.58617791    -0.36300
C307        C  0.45749956  0.96662058  0.61028711     0.16000
C308        C  0.46658755  0.96092978  0.65557495     0.21800
C309        C  0.48589958  0.98956021  0.68088264    -0.34400
C310        C  0.49611980  0.02332629  0.65702046     0.15900
O311        O  0.50033322  0.06195062  0.59569515    -0.26500
C312        C  0.51546178  0.07931344  0.63204528     0.05700
C313        C  0.51322349  0.05682178  0.67137170    -0.31300
O314        O  0.45728587  0.92591917  0.66987678    -0.23200
C315        C  0.44092736  0.90933000  0.63370016    -0.03200
C316        C  0.44002336  0.93351455  0.59577127    -0.17600
H317        H  0.46202685  0.00367766  0.55033545     0.20400
H318        H  0.49284647  0.98560499  0.71655943     0.18800
H319        H  0.52154306  0.06463092  0.70574631     0.18700
H320        H  0.43143276  0.92631068  0.56129768     0.14600
C321        C  0.36005372  0.29466204  0.54759767     0.30000
C322        C  0.32475666  0.29181018  0.52420521    -0.36300
C323        C  0.30808949  0.32687339  0.51042805     0.16000
C324        C  0.32535803  0.36217332  0.51852539     0.21800
C325        C  0.36039429  0.36503107  0.54231193    -0.34400
C326        C  0.37677048  0.33004589  0.55658833     0.15900
O327        O  0.38141928  0.26559857  0.56199019    -0.26500
C328        C  0.41199706  0.28260047  0.58090170     0.05700
C329        C  0.41064072  0.32270157  0.57862591    -0.31300
O330        O  0.30658706  0.39099598  0.49941526    -0.23200
C331        C  0.27641534  0.37411570  0.47970859    -0.03200
C332        C  0.27577861  0.33424160  0.48529875    -0.17600
H333        H  0.31166365  0.26420289  0.51647194     0.20400
H334        H  0.37432004  0.39246443  0.54829321     0.18800
H335        H  0.43205291  0.34327497  0.59015052     0.18700
H336        H  0.25591364  0.31360348  0.47045737     0.14600
C337        C  0.72369928  0.30752531  0.75916913     0.30000
C338        C  0.71573383  0.29545317  0.71434008    -0.36300
C339        C  0.68670189  0.26723797  0.70952888     0.16000
C340        C  0.66679240  0.25171044  0.74629883     0.21800
C341        C  0.67542714  0.26307879  0.79123057    -0.34400
C342        C  0.70431988  0.29145796  0.79601492     0.15900
O343        O  0.74452895  0.33810332  0.77071649    -0.26500
C344        C  0.73891976  0.34140049  0.81566755     0.05700
C345        C  0.71412279  0.31315445  0.83305722    -0.31300
O346        O  0.63628547  0.23119412  0.73366592    -0.23200
C347        C  0.63702510  0.23291100  0.68815653    -0.03200
C348        C  0.66774345  0.25505681  0.67149026    -0.17600
H349        H  0.72892549  0.30942571  0.68499613     0.20400
H350        H  0.65851156  0.25294677  0.82018786     0.18800
H351        H  0.70157357  0.31169082  0.86710615     0.18700
H352        H  0.67242145  0.26479160  0.63671838     0.14600
C353        C  0.47251004  0.20198882  0.33429297     0.30000
C354        C  0.45747594  0.21273680  0.37721393    -0.36300
C355        C  0.46816357  0.18928992  0.41400978     0.16000
C356        C  0.49225431  0.15760220  0.40894632     0.21800
C357        C  0.50596897  0.14596531  0.36570341    -0.34400
C358        C  0.49527798  0.16941793  0.32890937     0.15900
O359        O  0.46863964  0.22138633  0.29592136    -0.26500
C360        C  0.48902742  0.20089164  0.26548953     0.05700
C361        C  0.50590012  0.16800011  0.28393944    -0.31300
O362        O  0.50443517  0.14429809  0.44849187    -0.23200
C363        C  0.48699749  0.16695531  0.47925247    -0.03200
C364        C  0.46387950  0.19525737  0.45975561    -0.17600
H365        H  0.44046350  0.23878258  0.38197109     0.20400
H366        H  0.52566385  0.12180159  0.36143225     0.18800
H367        H  0.52371476  0.14650306  0.26679641     0.18700
H368        H  0.45035274  0.21978868  0.47661803     0.14600
C369        C  0.49291316  0.21755693  0.91394925     0.30000
C370        C  0.50975582  0.23818771  0.87769093    -0.36300
C371        C  0.49493881  0.23040004  0.83418337     0.16000
C372        C  0.46551429  0.20418846  0.82655933     0.21800
C373        C  0.44833074  0.18385106  0.86293819    -0.34400
C374        C  0.46327150  0.19154758  0.90650541     0.15900
O375        O  0.50251902  0.22005278  0.95743716    -0.26500
C376        C  0.47881099  0.19515946  0.97811870     0.05700
C377        C  0.45366625  0.17677407  0.94811784    -0.31300
O378        O  0.45773032  0.20001167  0.78266524    -0.23200
C379        C  0.48240717  0.22408105  0.76209464    -0.03200
C380        C  0.50610027  0.24375100  0.79253985    -0.17600
H381        H  0.53318201  0.25848291  0.88292382     0.20400
H382        H  0.42543709  0.16299726  0.85758856     0.18800
H383        H  0.43111461  0.15601423  0.95601878     0.18700
H384        H  0.52943025  0.26372514  0.78486989     0.14600
C385        C  0.02076836  0.50874398  0.38169349     0.30000
C386        C  0.99425697  0.53878055  0.39000913    -0.36300
C387        C  0.95626080  0.53224130  0.37571241     0.16000
C388        C  0.94518095  0.49836015  0.35465681     0.21800
C389        C  0.97180204  0.46809628  0.34653172    -0.34400
C390        C  0.00999903  0.47461873  0.36097054     0.15900
O391        O  0.05755439  0.50914076  0.39250296    -0.26500
C392        C  0.07104226  0.47489134  0.37884416     0.05700
C393        C  0.04269034  0.45182615  0.35902665    -0.31300
O394        O  0.90761574  0.49744091  0.34691273    -0.23200
C395        C  0.89447732  0.53111022  0.36316354    -0.03200
C396        C  0.92354092  0.55403614  0.38142632    -0.17600
H397        H  0.00263224  0.56523789  0.40710034     0.20400
H398        H  0.96313223  0.44112019  0.33086287     0.18800
H399        H  0.04574132  0.42299141  0.34502085     0.18700
H400        H  0.92057172  0.58137186  0.39921465     0.14600
C401        C  0.63989270  0.39860262  0.44872954     0.30000
C402        C  0.60313654  0.38593198  0.46334922    -0.36300
C403        C  0.60200613  0.34962560  0.48461542     0.16000
C404        C  0.63469485  0.32713396  0.49060472     0.21800
C405        C  0.67137261  0.33979130  0.47610184    -0.34400
C406        C  0.67254842  0.37622875  0.45546842     0.15900
O407        O  0.64813168  0.43237420  0.43004943    -0.26500
C408        C  0.68656390  0.43153438  0.42529299     0.05700
C409        C  0.70322303  0.39742320  0.44063947    -0.31300
O410        O  0.62739104  0.29525340  0.51363163    -0.23200
C411        C  0.58956953  0.29738374  0.52274968    -0.03200
C412        C  0.57222119  0.33053307  0.50547893    -0.17600
H413        H  0.57742728  0.40362024  0.45966989     0.20400
H414        H  0.69736523  0.32296534  0.48187544     0.18800
H415        H  0.73368495  0.38976162  0.44156913     0.18700
H416        H  0.54241337  0.33998290  0.50957333     0.14600
C417        C  0.78911175  0.52070717  0.68312804     0.30000
C418        C  0.80259386  0.54543612  0.64842887    -0.36300
C419        C  0.80612528  0.52917964  0.60442709     0.16000
C420        C  0.79731999  0.49111970  0.59491589     0.21800
C421        C  0.78407233  0.46631429  0.62967747    -0.34400
C422        C  0.78010468  0.48270665  0.67355176     0.15900
O423        O  0.78219195  0.53012687  0.72644680    -0.26500
C424        C  0.76807717  0.49775356  0.74468419     0.05700
C425        C  0.76623573  0.46744901  0.71325145    -0.31300
O426        O  0.79877212  0.48323044  0.55055909    -0.23200
C427        C  0.80871698  0.51671824  0.53135205    -0.03200
C428        C  0.81381966  0.54610872  0.56343157    -0.17600
H429        H  0.80857596  0.57563758  0.65490601     0.20400
H430        H  0.77583024  0.43673404  0.62266412     0.18800
H431        H  0.75615480  0.43821657  0.71897624     0.18700
H432        H  0.81893353  0.57648839  0.55703957     0.14600
C433        C  0.76755466  0.51095560  0.17771581     0.30000
C434        C  0.77006453  0.53028414  0.13550929    -0.36300
C435        C  0.78562197  0.50896153  0.09866167     0.16000
C436        C  0.79723688  0.47100710  0.10303442     0.21800
C437        C  0.79530517  0.45189771  0.14538275    -0.34400
C438        C  0.78017730  0.47335063  0.18231122     0.15900
O439        O  0.75409857  0.52545399  0.21654473    -0.26500
C440        C  0.75840009  0.49694172  0.24666539     0.05700
C441        C  0.77454471  0.46375899  0.22723621    -0.31300
O442        O  0.80649175  0.45510513  0.06336086    -0.23200
C443        C  0.80153069  0.48332245  0.03303699    -0.03200
C444        C  0.78894934  0.51770886  0.05319242    -0.17600
H445        H  0.75995828  0.55969715  0.13151720     0.20400
H446        H  0.80408231  0.42204778  0.14901422     0.18800
H447        H  0.78174427  0.43686425  0.24392520     0.18700
H448        H  0.77959565  0.54386062  0.03629901     0.14600
C449        C  0.65638761  0.64924617  0.52564564     0.30000
C450        C  0.64507871  0.68604241  0.54071266    -0.36300
C451        C  0.60867616  0.68838795  0.56220813     0.16000
C452        C  0.58544295  0.65652267  0.56987045     0.21800
C453        C  0.59713353  0.61948095  0.55559072    -0.34400
C454        C  0.63309156  0.61730695  0.53272909     0.15900
O455        O  0.68625888  0.64178498  0.49866807    -0.26500
C456        C  0.68190913  0.60476809  0.48779547     0.05700
C457        C  0.64962587  0.58780577  0.50843250    -0.31300
O458        O  0.55115950  0.66594855  0.58712409    -0.23200
C459        C  0.55242915  0.70432003  0.59001148    -0.03200
C460        C  0.58747985  0.71981534  0.57499457    -0.17600
H461        H  0.66220505  0.71148998  0.53320054     0.20400
H462        H  0.57834906  0.59461109  0.55922102     0.18800
H463        H  0.63836673  0.55894614  0.50331352     0.18700
H464        H  0.59552128  0.74995411  0.57219563     0.14600
C465        C  0.47330278  0.95531457  0.15293299     0.30000
C466        C  0.44427088  0.98372456  0.15708801    -0.36300
C467        C  0.45671727  0.02221203  0.15445591     0.16000
C468        C  0.49527551  0.03186119  0.14856051     0.21800
C469        C  0.52450342  0.00344669  0.14585913    -0.34400
C470        C  0.51198072  0.96490310  0.14806436     0.15900
O471        O  0.46730153  0.91800256  0.14821162    -0.26500
C472        C  0.50247690  0.90315943  0.14065397     0.05700
C473        C  0.53165355  0.93094607  0.14067149    -0.31300
O474        O  0.49999702  0.06904562  0.14103160    -0.23200
C475        C  0.46413423  0.08362277  0.14224117    -0.03200
C476        C  0.43593512  0.05585582  0.15109857    -0.17600
H477        H  0.41380331  0.97624938  0.15917745     0.20400
H478        H  0.55458857  0.01084943  0.13949022     0.18800
H479        H  0.56215230  0.92711318  0.13263741     0.18700
H480        H  0.40471760  0.05940462  0.15136499     0.14600
C481        C  0.34022808  0.61238160  0.00381696     0.30000
C482        C  0.37983232  0.61686696  0.01265623    -0.36300
C483        C  0.38906297  0.64139248  0.04903518     0.16000
C484        C  0.36124556  0.66069037  0.07464603     0.21800
C485        C  0.32145674  0.65531169  0.06662945    -0.34400
C486        C  0.31219190  0.63040645  0.03039128     0.15900
O487        O  0.32541385  0.59251959  0.96983172    -0.26500
C488        C  0.28733414  0.59736922  0.97486835     0.05700
C489        C  0.27726708  0.62045201  0.01219720    -0.31300
O490        O  0.37662390  0.68580696  0.10320766    -0.23200
C491        C  0.41471092  0.68190566  0.09629079    -0.03200
C492        C  0.42411312  0.65436755  0.06337689    -0.17600
H493        H  0.40197373  0.60323881  0.99156927     0.20400
H494        H  0.29936021  0.67061914  0.08607015     0.18800
H495        H  0.24858006  0.62937535  0.02341951     0.18700
H496        H  0.45248293  0.64743541  0.04930307     0.14600
C497        C  0.61394864  0.63702763  0.02182585     0.30000
C498        C  0.63320960  0.60145061  0.02346876    -0.36300
C499        C  0.64814233  0.58754822  0.98191740     0.16000
C500        C  0.64434802  0.60699906  0.94106992     0.21800
C501        C  0.62509017  0.64294982  0.93945026    -0.34400
C502        C  0.61026270  0.65710649  0.98138860     0.15900
O503        O  0.59843891  0.65532636  0.05706143    -0.26500
C504        C  0.58465861  0.68785619  0.03942937     0.05700
C505        C  0.59120527  0.69067639  0.99239082    -0.31300
O506        O  0.66236023  0.58904219  0.90678501    -0.23200
C507        C  0.67764779  0.55783512  0.92634526    -0.03200
C508        C  0.66988360  0.55569338  0.97290607    -0.17600
H509        H  0.63689211  0.58593205  0.05522634     0.20400
H510        H  0.62248508  0.65905630  0.90796310     0.18800
H511        H  0.58312021  0.71397247  0.96976820     0.18700
H512        H  0.68027457  0.53443500  0.99699064     0.14600
C513        C  0.65491525  0.74057998  0.25794233     0.30000
C514        C  0.66495140  0.72781353  0.30161325    -0.36300
C515        C  0.69730548  0.70337951  0.30401694     0.16000
C516        C  0.71845250  0.69178136  0.26604479     0.21800
C517        C  0.70926880  0.70586359  0.22233410    -0.34400
C518        C  0.67690497  0.73069895  0.21993562     0.15900
O519        O  0.62187340  0.75740619  0.24733662    -0.26500
C520        C  0.62290648  0.75944201  0.20197334     0.05700
C521        C  0.65670193  0.74366184  0.18305562    -0.31300
O522        O  0.74225578  0.66270316  0.27514739    -0.23200
C523        C  0.73670836  0.65630811  0.31967361    -0.03200
C524        C  0.70929176  0.68102037  0.33912743    -0.17600
H525        H  0.64673740  0.73373224  0.33119760     0.20400
H526        H  0.72417359  0.69558514  0.19189496     0.18800
H527        H  0.66289809  0.73787405  0.14732881     0.18700
H528        H  0.69621781  0.67907338  0.37288488     0.14600
C529        C  0.45925255  0.77968651  0.91284622     0.30000
C530        C  0.44013894  0.76155697  0.87666691    -0.36300
C531        C  0.45630798  0.76753679  0.83311215     0.16000
C532        C  0.48882967  0.78998978  0.82536876     0.21800
C533        C  0.50780791  0.80828284  0.86152288    -0.34400
C534        C  0.49174833  0.80217874  0.90511630     0.15900
O535        O  0.45053766  0.77637758  0.95668851    -0.26500
C536        C  0.47776529  0.79719188  0.97712820     0.05700
C537        C  0.50403160  0.81395950  0.94672318    -0.31300
O538        O  0.49871630  0.79173151  0.78170985    -0.23200
C539        C  0.47224749  0.76987695  0.76145162    -0.03200
C540        C  0.44520896  0.75414850  0.79175290    -0.17600
H541        H  0.41484517  0.74356382  0.88213322     0.20400
H542        H  0.53352402  0.82568021  0.85613991     0.18800
H543        H  0.52956026  0.83089273  0.95437221     0.18700
H544        H  0.42041924  0.73611286  0.78418611     0.14600
C545        C  0.48437012  0.78579704  0.33244875     0.30000
C546        C  0.50175359  0.77696778  0.37418848    -0.36300
C547        C  0.49173889  0.80093492  0.41110489     0.16000
C548        C  0.46563332  0.83101901  0.40748637     0.21800
C549        C  0.44918774  0.84069277  0.36526251    -0.34400
C550        C  0.45968739  0.81698299  0.32811692     0.15900
O551        O  0.48893522  0.76642964  0.29399377    -0.26500
C552        C  0.46725499  0.78560065  0.26435841     0.05700
C553        C  0.44852546  0.81753128  0.28352586    -0.31300
O554        O  0.45484914  0.84470523  0.44779750    -0.23200
C555        C  0.47528832  0.82402921  0.47743935    -0.03200
C556        C  0.49903001  0.79670133  0.45637442    -0.17600
H557        H  0.52064355  0.75218988  0.37801040     0.20400
H558        H  0.42823686  0.86383100  0.36206589     0.18800
H559        H  0.42986162  0.83825418  0.26690442     0.18700
H560        H  0.51455302  0.77321723  0.47242554     0.14600
loop_ 
_geom_bond_atom_site_label_1 
_geom_bond_atom_site_label_2 
_geom_bond_distance 
_geom_bond_site_symmetry_2 
_ccdc_geom_bond_type 
O1          Cr19   1.972       .  S
O1            C9   1.261       .  A
O2          Cr19   1.989       .  S
O2            C3   1.262       .  A
C3            O4   1.268       .  A
C3          C472   1.473       .  S
O4          Cr20   2.008       .  S
O5          Cr20   2.023       .  S
O5            C6   1.266       .  A
C6            O7   1.256       .  A
C6          C520   1.470       .  S
O7          Cr21   1.972       .  S
O8          Cr21   2.008       .  S
O8            C9   1.269       .  A
C9          C552   1.465       .  S
O10         Cr19   2.004       .  S
O10          C18   1.259       .  A
O11         Cr19   1.987       .  S
O11          C12   1.264       .  A
C12          O13   1.266       .  A
C12         C536   1.464   1_554  S
O13         Cr20   2.000       .  S
O14         Cr20   1.990       .  S
O14          C15   1.262       .  A
C15          O16   1.267       .  A
C15         C504   1.474       .  S
O16         Cr21   2.008       .  S
O17         Cr21   1.983       .  S
O17          C18   1.257       .  A
C18         C491   1.467       .  S
Cr19         O22   1.774       .  S
Cr20         O22   1.772       .  S
Cr21         O22   1.762       .  S
O23         Cr41   2.036       .  S
O23          C31   1.276       .  A
O24         Cr41   1.952       .  S
O24          C25   1.248       .  A
C25          O26   1.265       .  A
C25         C395   1.469       .  S
O26         Cr42   2.020       .  S
O27         Cr42   2.004       .  S
O27          C28   1.264       .  A
C28          O29   1.262       .  A
C28         C523   1.471       .  S
O29         Cr43   1.996       .  S
O30         Cr43   1.969       .  S
O30          C31   1.262       .  A
C31         C440   1.479       .  S
O32         Cr41   1.952       .  S
O32          C40   1.247       .  A
O33         Cr41   2.035       .  S
O33          C34   1.274       .  A
C34          O35   1.257       .  A
C34         C427   1.479       .  S
O35         Cr42   1.953       .  S
O36         Cr42   2.014       .  S
O36          C37   1.270       .  A
C37          O38   1.264       .  A
C37         C456   1.464       .  S
O38         Cr43   1.979       .  S
O39         Cr43   2.012       .  S
O39          C40   1.259       .  A
C40         C408   1.465       .  S
Cr41         O44   1.770       .  S
Cr42         O44   1.779       .  S
Cr43         O44   1.772       .  S
O45         Cr63   1.956       .  S
O45          C53   1.258       .  A
O46         Cr63   2.011       .  S
O46          C47   1.269       .  A
C47          O48   1.270       .  A
C47         C347   1.473       .  S
O48         Cr64   2.002       .  S
O49         Cr64   2.024       .  S
O49          C50   1.262       .  A
C50          O51   1.250       .  A
C50         C312   1.470       .  S
O51         Cr65   1.973       .  S
O52         Cr65   2.017       .  S
O52          C53   1.269       .  A
C53         C379   1.470       .  S
O54         Cr63   2.008       .  S
O54          C62   1.263       .  A
O55         Cr63   1.973       .  S
O55          C56   1.257       .  A
C56          O57   1.266       .  A
C56         C411   1.466       .  S
O57         Cr64   2.019       .  S
O58         Cr64   1.961       .  S
O58          C59   1.262       .  A
C59          O60   1.273       .  A
C59         C363   1.460       .  S
O60         Cr65   2.025       .  S
O61         Cr65   1.964       .  S
O61          C62   1.252       .  A
C62         C328   1.470       .  S
Cr63         O66   1.769       .  S
Cr64         O66   1.780       .  S
Cr65         O66   1.775       .  S
O67         Cr85   1.956       .  S
O67          C75   1.261       .  A
O68         Cr85   2.000       .  S
O68          C69   1.259       .  A
C69          O70   1.261       .  A
C69         C344   1.473       .  S
O70         Cr86   2.004       .  S
O71         Cr86   2.029       .  S
O71          C72   1.270       .  A
C72          O73   1.252       .  A
C72         C280   1.476       .  S
O73         Cr87   1.955       .  S
O74         Cr87   2.047       .  S
O74          C75   1.279       .  A
C75         C424   1.481       .  S
O76         Cr85   2.024       .  S
O76          C84   1.259       .  A
O77         Cr85   1.966       .  S
O77          C78   1.265       .  A
C78          O79   1.277       .  A
C78         C296   1.471       .  S
O79         Cr86   2.034       .  S
O80         Cr86   1.962       .  S
O80          C81   1.256       .  A
C81          O82   1.270       .  A
C81         C443   1.476   1_556  S
O82         Cr87   2.022       .  S
O83         Cr87   1.964       .  S
O83          C84   1.246       .  A
C84         C507   1.470       .  S
Cr85         O88   1.779       .  S
Cr86         O88   1.777       .  S
Cr87         O88   1.773       .  S
O89        Cr107   1.977       .  S
O89          C97   1.265       .  A
O90        Cr107   1.981       .  S
O90          C91   1.258       .  A
C91          O92   1.269       .  A
C91         C475   1.475       .  S
O92        Cr108   2.020       .  S
O93        Cr108   2.011       .  S
O93          C94   1.264       .  A
C94          O95   1.257       .  A
C94         C264   1.470       .  S
O95        Cr109   1.980       .  S
O96        Cr109   2.005       .  S
O96          C97   1.270       .  A
C97         C360   1.467       .  S
O98        Cr107   1.991       .  S
O98         C106   1.255       .  A
O99        Cr107   1.995       .  S
O99         C100   1.268       .  A
C100        O101   1.268       .  A
C100        C376   1.471   1_554  S
O101       Cr108   2.004       .  S
O102       Cr108   1.986       .  S
O102        C103   1.263       .  A
C103        O104   1.265       .  A
C103        C248   1.467       .  S
O104       Cr109   1.991       .  S
O105       Cr109   1.999       .  S
O105        C106   1.256       .  A
C106        C299   1.473       .  S
Cr107       O110   1.773       .  S
Cr108       O110   1.775       .  S
Cr109       O110   1.767       .  S
O111       Cr129   1.977       .  S
O111        C119   1.266       .  A
O112       Cr129   1.965       .  S
O112        C113   1.252       .  A
C113        O114   1.266       .  A
C113        C392   1.471       .  S
O114       Cr130   2.024       .  S
O115       Cr130   2.018       .  S
O115        C116   1.268       .  A
C116        O117   1.257       .  A
C116        C267   1.469       .  S
O117       Cr131   1.969       .  S
O118       Cr131   1.997       .  S
O118        C119   1.268       .  A
C119        C232   1.457       .  S
O120       Cr129   1.978       .  S
O120        C128   1.251       .  A
O121       Cr129   1.974       .  S
O121        C122   1.268       .  A
C122        O123   1.272       .  A
C122        C219   1.459       .  S
O123       Cr130   2.012       .  S
O124       Cr130   1.988       .  S
O124        C125   1.261       .  A
C125        O126   1.260       .  A
C125        C331   1.462       .  S
O126       Cr131   1.985       .  S
O127       Cr131   1.995       .  S
O127        C128   1.256       .  A
C128        C203   1.459       .  S
Cr129       O132   1.771       .  S
Cr130       O132   1.777       .  S
Cr131       O132   1.768       .  S
O133       Cr151   2.001       .  S
O133        C141   1.269       .  A
O134       Cr151   1.975       .  S
O134        C135   1.258       .  A
C135        O136   1.268       .  A
C135        C187   1.476       .  S
O136       Cr152   2.025       .  S
O137       Cr152   2.022       .  S
O137        C138   1.268       .  A
C138        O139   1.256       .  A
C138        C283   1.476       .  S
O139       Cr153   1.978       .  S
O140       Cr153   1.971       .  S
O140        C141   1.265       .  A
C141        C216   1.456       .  S
O142       Cr151   1.996       .  S
O142        C150   1.256       .  A
O143       Cr151   1.988       .  S
O143        C144   1.262       .  A
C144        O145   1.261       .  A
C144        C488   1.466       .  S
O145       Cr152   1.984       .  S
O146       Cr152   2.010       .  S
O146        C147   1.272       .  A
C147        O148   1.266       .  A
C147        C235   1.459   1_556  S
O148       Cr153   1.977       .  S
O149       Cr153   1.992       .  S
O149        C150   1.254       .  A
C150        C251   1.467       .  S
Cr151       O154   1.764       .  S
Cr152       O154   1.775       .  S
Cr153       O154   1.774       .  S
O155       Cr173   1.945       .  S
O155        C163   1.257       .  A
O156       Cr173   1.995       .  S
O156        C157   1.263       .  A
C157        O158   1.268       .  A
C157        C184   1.475       .  S
O158       Cr174   2.012       .  S
O159       Cr174   2.022       .  S
O159        C160   1.264       .  A
C160        O161   1.251       .  A
C160        C315   1.474       .  S
O161       Cr175   1.969       .  S
O162       Cr175   2.021       .  S
O162        C163   1.271       .  A
C163        C539   1.464       .  S
O164       Cr173   2.001       .  S
O164        C172   1.259       .  A
O165       Cr173   1.961       .  S
O165        C166   1.258       .  A
C166        O167   1.270       .  A
C166        C200   1.459       .  S
O167       Cr174   2.019       .  S
O168       Cr174   1.953       .  S
O168        C169   1.258       .  A
C169        O170   1.272       .  A
C169        C555   1.460       .  S
O170       Cr175   2.026       .  S
O171       Cr175   1.970       .  S
O171        C172   1.254       .  A
C172        C459   1.468       .  S
Cr173       O176   1.770       .  S
Cr174       O176   1.780       .  S
Cr175       O176   1.774       .  S
C177        C182   1.380       .  A
C177        C178   1.411       .  A
C177        O183   1.328       .  A
C178        C179   1.412       .  A
C178        H189   1.082       .  S
C179        C188   1.370       .  A
C179        C180   1.380       .  A
C180        C181   1.401       .  A
C180        O186   1.320       .  A
C181        C182   1.402       .  A
C181        H190   1.082       .  S
C182        C185   1.357       .  A
O183        C184   1.335       .  A
C184        C185   1.391       .  A
C185        H191   1.083       .  S
O186        C187   1.330       .  A
C187        C188   1.396       .  A
C188        H192   1.083       .  S
C193        C198   1.381       .  A
C193        C194   1.403       .  A
C193        O199   1.315       .  A
C194        C195   1.400       .  A
C194        H205   1.082       .  S
C195        C204   1.364       .  A
C195        C196   1.381       .  A
C196        C197   1.399       .  A
C196        O202   1.311       .  A
C197        C198   1.396       .  A
C197        H206   1.083       .  S
C198        C201   1.359       .  A
O199        C200   1.330       .  A
C200        C201   1.388       .  A
C201        H207   1.083       .  S
O202        C203   1.329       .  A
C203        C204   1.389       .  A
C204        H208   1.082       .  S
C209        C214   1.381       .  A
C209        C210   1.399       .  A
C209        O215   1.312       .  A
C210        C211   1.397       .  A
C210        H221   1.082       .  S
C211        C220   1.359       .  A
C211        C212   1.381       .  A
C212        C213   1.402       .  A
C212        O218   1.314       .  A
C213        C214   1.399       .  A
C213        H222   1.082       .  S
C214        C217   1.362       .  A
O215        C216   1.328       .  A
C216        C217   1.389       .  A
C217        H223   1.082       .  S
O218        C219   1.329       .  A
C219        C220   1.389       .  A
C220        H224   1.083       .  S
C225        C230   1.382       .  A
C225        C226   1.398       .  A
C225        O231   1.317       .  A
C226        C227   1.399       .  A
C226        H237   1.082       .  S
C227        C236   1.355       .  A
C227        C228   1.382       .  A
C228        C229   1.400       .  A
C228        O234   1.317       .  A
C229        C230   1.400       .  A
C229        H238   1.082       .  S
C230        C233   1.354       .  A
O231        C232   1.327       .  A
C232        C233   1.390       .  A
C233        H239   1.083       .  S
O234        C235   1.329       .  A
C235        C236   1.389       .  A
C236        H240   1.083       .  S
C241        C246   1.381   1_556  A
C241        C242   1.404       .  A
C241        O247   1.322   1_556  A
C242        C243   1.405       .  A
C242        H253   1.082       .  S
C243        C252   1.359       .  A
C243        C244   1.381       .  A
C244        C245   1.400       .  A
C244        O250   1.319       .  A
C245        C246   1.401   1_556  A
C245        H254   1.082   1_556  S
C246        C249   1.355       .  A
O247        C248   1.331       .  A
C248        C249   1.389       .  A
C249        H255   1.083       .  S
O250        C251   1.329       .  A
C251        C252   1.393       .  A
C252        H256   1.083       .  S
C257        C262   1.380       .  A
C257        C258   1.406       .  A
C257        O263   1.324       .  A
C258        C259   1.407       .  A
C258        H269   1.080       .  S
C259        C268   1.364       .  A
C259        C260   1.380       .  A
C260        C261   1.404       .  A
C260        O266   1.321       .  A
C261        C262   1.404       .  A
C261        H270   1.079       .  S
C262        C265   1.360       .  A
O263        C264   1.332       .  A
C264        C265   1.391       .  A
C265        H271   1.083       .  S
O266        C267   1.332       .  A
C267        C268   1.392       .  A
C268        H272   1.083       .  S
C273        C278   1.379       .  A
C273        C274   1.410       .  A
C273        O279   1.318       .  A
C274        C275   1.406   1_655  A
C274        H285   1.083       .  S
C275        C284   1.375       .  A
C275        C276   1.379       .  A
C276        C277   1.404   1_455  A
C276        O282   1.313       .  A
C277        C278   1.400       .  A
C277        H286   1.083   1_655  S
C278        C281   1.368       .  A
O279        C280   1.335       .  A
C280        C281   1.391       .  A
C281        H287   1.082       .  S
O282        C283   1.332       .  A
C283        C284   1.393       .  A
C284        H288   1.082       .  S
C289        C294   1.381       .  A
C289        C290   1.401       .  A
C289        O295   1.320       .  A
C290        C291   1.402       .  A
C290        H301   1.083       .  S
C291        C300   1.358       .  A
C291        C292   1.381       .  A
C292        C293   1.405       .  A
C292        O298   1.323       .  A
C293        C294   1.405       .  A
C293        H302   1.082       .  S
C294        C297   1.361   1_554  A
O295        C296   1.330   1_554  A
C296        C297   1.393       .  A
C297        H303   1.083       .  S
O298        C299   1.332       .  A
C299        C300   1.391       .  A
C300        H304   1.083       .  S
C305        C310   1.380       .  A
C305        C306   1.405   1_545  A
C305        O311   1.319       .  A
C306        C307   1.404       .  A
C306        H317   1.082   1_565  S
C307        C316   1.364       .  A
C307        C308   1.379       .  A
C308        C309   1.407       .  A
C308        O314   1.322       .  A
C309        C310   1.406   1_565  A
C309        H318   1.082       .  S
C310        C313   1.368       .  A
O311        C312   1.332       .  A
C312        C313   1.392       .  A
C313        H319   1.082       .  S
O314        C315   1.333       .  A
C315        C316   1.392       .  A
C316        H320   1.083       .  S
C321        C326   1.380       .  A
C321        C322   1.405       .  A
C321        O327   1.318       .  A
C322        C323   1.404       .  A
C322        H333   1.081       .  S
C323        C332   1.365       .  A
C323        C324   1.380       .  A
C324        C325   1.403       .  A
C324        O330   1.317       .  A
C325        C326   1.402       .  A
C325        H334   1.079       .  S
C326        C329   1.363       .  A
O327        C328   1.332       .  A
C328        C329   1.390       .  A
C329        H335   1.082       .  S
O330        C331   1.329       .  A
C331        C332   1.390       .  A
C332        H336   1.083       .  S
C337        C342   1.380       .  A
C337        C338   1.405       .  A
C337        O343   1.324       .  A
C338        C339   1.407       .  A
C338        H349   1.082       .  S
C339        C348   1.363       .  A
C339        C340   1.380       .  A
C340        C341   1.406       .  A
C340        O346   1.324       .  A
C341        C342   1.407       .  A
C341        H350   1.082       .  S
C342        C345   1.363       .  A
O343        C344   1.332       .  A
C344        C345   1.393       .  A
C345        H351   1.083       .  S
O346        C347   1.333       .  A
C347        C348   1.392       .  A
C348        H352   1.083       .  S
C353        C358   1.380       .  A
C353        C354   1.402       .  A
C353        O359   1.317       .  A
C354        C355   1.402       .  A
C354        H365   1.082       .  S
C355        C364   1.360       .  A
C355        C356   1.381       .  A
C356        C357   1.403       .  A
C356        O362   1.319       .  A
C357        C358   1.402       .  A
C357        H366   1.082       .  S
C358        C361   1.363       .  A
O359        C360   1.331       .  A
C360        C361   1.390       .  A
C361        H367   1.083       .  S
O362        C363   1.330       .  A
C363        C364   1.389       .  A
C364        H368   1.083       .  S
C369        C374   1.381       .  A
C369        C370   1.401       .  A
C369        O375   1.321       .  A
C370        C371   1.402       .  A
C370        H381   1.082       .  S
C371        C380   1.356       .  A
C371        C372   1.381       .  A
C372        C373   1.404       .  A
C372        O378   1.322       .  A
C373        C374   1.405       .  A
C373        H382   1.082       .  S
C374        C377   1.359       .  A
O375        C376   1.330       .  A
C376        C377   1.393       .  A
C377        H383   1.082       .  S
O378        C379   1.331       .  A
C379        C380   1.392       .  A
C380        H384   1.083       .  S
C385        C390   1.379       .  A
C385        C386   1.402   1_455  A
C385        O391   1.310       .  A
C386        C387   1.397       .  A
C386        H397   1.083   1_655  S
C387        C396   1.364       .  A
C387        C388   1.379       .  A
C388        C389   1.409       .  A
C388        O394   1.317       .  A
C389        C390   1.405   1_655  A
C389        H398   1.083       .  S
C390        C393   1.375       .  A
O391        C392   1.331       .  A
C392        C393   1.393       .  A
C393        H399   1.082       .  S
O394        C395   1.334       .  A
C395        C396   1.389       .  A
C396        H400   1.083       .  S
C401        C406   1.381       .  A
C401        C402   1.403       .  A
C401        O407   1.321       .  A
C402        C403   1.404       .  A
C402        H413   1.083       .  S
C403        C412   1.361       .  A
C403        C404   1.381       .  A
C404        C405   1.400       .  A
C404        O410   1.317       .  A
C405        C406   1.400       .  A
C405        H414   1.083       .  S
C406        C409   1.355       .  A
O407        C408   1.330       .  A
C408        C409   1.390       .  A
C409        H415   1.083       .  S
O410        C411   1.329       .  A
C411        C412   1.392       .  A
C412        H416   1.083       .  S
C417        C422   1.380       .  A
C417        C418   1.405       .  A
C417        O423   1.327       .  A
C418        C419   1.407       .  A
C418        H429   1.082       .  S
C419        C428   1.360       .  A
C419        C420   1.380       .  A
C420        C421   1.405       .  A
C420        O426   1.326       .  A
C421        C422   1.407       .  A
C421        H430   1.082       .  S
C422        C425   1.359       .  A
O423        C424   1.332       .  A
C424        C425   1.395       .  A
C425        H431   1.083       .  S
O426        C427   1.333       .  A
C427        C428   1.395       .  A
C428        H432   1.083       .  S
C433        C438   1.379       .  A
C433        C434   1.408       .  A
C433        O439   1.320       .  A
C434        C435   1.406       .  A
C434        H445   1.082       .  S
C435        C444   1.369       .  A
C435        C436   1.379       .  A
C436        C437   1.407       .  A
C436        O442   1.319       .  A
C437        C438   1.404       .  A
C437        H446   1.082       .  S
C438        C441   1.368       .  A
O439        C440   1.334       .  A
C440        C441   1.393       .  A
C441        H447   1.082       .  S
O442        C443   1.333       .  A
C443        C444   1.393       .  A
C444        H448   1.083       .  S
C449        C454   1.382       .  A
C449        C450   1.400       .  A
C449        O455   1.315       .  A
C450        C451   1.399       .  A
C450        H461   1.082       .  S
C451        C460   1.359       .  A
C451        C452   1.381       .  A
C452        C453   1.404       .  A
C452        O458   1.320       .  A
C453        C454   1.403       .  A
C453        H462   1.082       .  S
C454        C457   1.363       .  A
O455        C456   1.328       .  A
C456        C457   1.391       .  A
C457        H463   1.082       .  S
O458        C459   1.331       .  A
C459        C460   1.389       .  A
C460        H464   1.083       .  S
C465        C470   1.380       .  A
C465        C466   1.406       .  A
C465        O471   1.315       .  A
C466        C467   1.402   1_565  A
C466        H477   1.083       .  S
C467        C476   1.370       .  A
C467        C468   1.379       .  A
C468        C469   1.408       .  A
C468        O474   1.316       .  A
C469        C470   1.404   1_545  A
C469        H478   1.082       .  S
C470        C473   1.371       .  A
O471        C472   1.332       .  A
C472        C473   1.392       .  A
C473        H479   1.082       .  S
O474        C475   1.334       .  A
C475        C476   1.390       .  A
C476        H480   1.082       .  S
C481        C486   1.381       .  A
C481        C482   1.400       .  A
C481        O487   1.315   1_554  A
C482        C483   1.399       .  A
C482        H493   1.083   1_554  S
C483        C492   1.359       .  A
C483        C484   1.381       .  A
C484        C485   1.406       .  A
C484        O490   1.320       .  A
C485        C486   1.404       .  A
C485        H494   1.082       .  S
C486        C489   1.365       .  A
O487        C488   1.329       .  A
C488        C489   1.392   1_556  A
C489        H495   1.082       .  S
O490        C491   1.332       .  A
C491        C492   1.388       .  A
C492        H496   1.083       .  S
C497        C502   1.381   1_554  A
C497        C498   1.399       .  A
C497        O503   1.316       .  A
C498        C499   1.399   1_554  A
C498        H509   1.083       .  S
C499        C508   1.356       .  A
C499        C500   1.381       .  A
C500        C501   1.410       .  A
C500        O506   1.326       .  A
C501        C502   1.410       .  A
C501        H510   1.082       .  S
C502        C505   1.370       .  A
O503        C504   1.329       .  A
C504        C505   1.396   1_554  A
C505        H511   1.083       .  S
O506        C507   1.334       .  A
C507        C508   1.388       .  A
C508        H512   1.083       .  S
C513        C518   1.381       .  A
C513        C514   1.400       .  A
C513        O519   1.318       .  A
C514        C515   1.401       .  A
C514        H525   1.083       .  S
C515        C524   1.355       .  A
C515        C516   1.380       .  A
C516        C517   1.409       .  A
C516        O522   1.327       .  A
C517        C518   1.409       .  A
C517        H526   1.082       .  S
C518        C521   1.367       .  A
O519        C520   1.329       .  A
C520        C521   1.394       .  A
C521        H527   1.083       .  S
O522        C523   1.334       .  A
C523        C524   1.390       .  A
C524        H528   1.083       .  S
C529        C534   1.381       .  A
C529        C530   1.400       .  A
C529        O535   1.319       .  A
C530        C531   1.401       .  A
C530        H541   1.082       .  S
C531        C540   1.354       .  A
C531        C532   1.381       .  A
C532        C533   1.400       .  A
C532        O538   1.320       .  A
C533        C534   1.401       .  A
C533        H542   1.082       .  S
C534        C537   1.355       .  A
O535        C536   1.330       .  A
C536        C537   1.391       .  A
C537        H543   1.083       .  S
O538        C539   1.329       .  A
C539        C540   1.391       .  A
C540        H544   1.083       .  S
C545        C550   1.380       .  A
C545        C546   1.400       .  A
C545        O551   1.316       .  A
C546        C547   1.400       .  A
C546        H557   1.083       .  S
C547        C556   1.359       .  A
C547        C548   1.380       .  A
C548        C549   1.406       .  A
C548        O554   1.319       .  A
C549        C550   1.404       .  A
C549        H558   1.082       .  S
C550        C553   1.364       .  A
O551        C552   1.329       .  A
C552        C553   1.392       .  A
C553        H559   1.082       .  S
O554        C555   1.332       .  A
C555        C556   1.388       .  A
C556        H560   1.083       .  S
