geometry optimzed in LAMMPS
_audit_creation_date              2020-12-01 
_audit_creation_method            'lammps2cif' 
_symmetry_space_group_name_H-M    'P1' 
_symmetry_Int_Tables_number       1 
_symmetry_cell_setting            triclinic 
loop_ 
_symmetry_equiv_pos_as_xyz 
  x,y,z 
_cell_length_a                    36.01028616 
_cell_length_b                    35.71729135446334 
_cell_length_c                    44.13388926672702 
_cell_angle_alpha                 90.22548737621537 
_cell_angle_beta                  89.52797287971755 
_cell_angle_gamma                 89.94212036753716 
loop_ 
_atom_site_label 
_atom_site_type_symbol 
_atom_site_fract_x 
_atom_site_fract_y 
_atom_site_fract_z 
_atom_site_charge 
O1          O  0.70385802  0.50418436  0.41083568    -0.86200
O2          O  0.75309595  0.45610333  0.38160493    -0.83300
C3          C  0.76103802  0.42506690  0.36906996     0.97300
O4          O  0.74032942  0.41111776  0.34912095    -0.83300
O5          O  0.67259281  0.38350247  0.36930090    -0.85900
C6          C  0.64055583  0.38371129  0.38109401     1.01800
O7          O  0.62227752  0.41355408  0.38278854    -0.78700
O8          O  0.66149578  0.46162956  0.42044738    -0.78900
C9          C  0.68777134  0.48237705  0.42943308     1.01700
O10         O  0.68438742  0.53602027  0.35118631    -0.86200
O11         O  0.73883217  0.49138552  0.32477543    -0.83300
C12         C  0.72840343  0.47505526  0.30089946     0.97300
O13         O  0.70366021  0.45015906  0.30175819    -0.83300
O14         O  0.63751810  0.42095828  0.32029358    -0.85900
C15         C  0.61162941  0.44474655  0.32040864     1.01700
O16         O  0.60974812  0.47038571  0.34047220    -0.78700
O17         O  0.63887693  0.52281016  0.38214817    -0.78900
C18         C  0.65392784  0.54499736  0.36365061     1.01700
Cr19       Cr  0.71674024  0.49418790  0.36666037     1.93700
Cr20       Cr  0.68800809  0.42015079  0.33740768     1.93200
Cr21       Cr  0.63711199  0.46682027  0.37993400     1.39100
O22         O  0.68084391  0.46020663  0.36110990    -1.24000
O23         O  0.71921596  0.45060191  0.11436043    -0.86200
O24         O  0.75609878  0.48590650  0.15998691    -0.83300
C25         C  0.78281582  0.49038203  0.17803379     0.97300
O26         O  0.81579348  0.49384714  0.16791411    -0.83300
O27         O  0.83948180  0.42466006  0.15361872    -0.85900
C28         C  0.84215495  0.39338010  0.14112226     1.01800
O29         O  0.82912702  0.38835163  0.11493487    -0.78700
O30         O  0.75329288  0.40024189  0.12052551    -0.78900
C31         C  0.72241251  0.41668333  0.12247598     1.01700
O32         O  0.75668460  0.49804107  0.06984510    -0.86200
O33         O  0.78814653  0.53928184  0.11843524    -0.83300
C34         C  0.82189699  0.54527270  0.11174636     0.97300
O35         O  0.84414888  0.51852390  0.10854872    -0.83300
O36         O  0.87080567  0.44846753  0.09674159    -0.85900
C37         C  0.86264215  0.43861761  0.06992652     1.01700
O38         O  0.82933725  0.43361991  0.06234497    -0.78700
O39         O  0.75280652  0.43786991  0.06322376    -0.78900
C40         C  0.74901948  0.47054331  0.05271530     1.01700
Cr41       Cr  0.75802572  0.49143117  0.11524648     1.93700
Cr42       Cr  0.83912514  0.47092334  0.13022028     1.93200
Cr43       Cr  0.79141181  0.41825719  0.09190957     1.39100
O44         O  0.79638579  0.46037927  0.11256102    -1.24000
O45         O  0.99980384  0.21042300  0.13865140    -0.86200
O46         O  0.95694983  0.25934977  0.17163893    -0.83300
C47         C  0.92604245  0.26705283  0.18434142     0.97300
O48         O  0.91242294  0.24622644  0.20453999    -0.83300
O49         O  0.88131178  0.18150657  0.18197016    -0.85900
C50         C  0.87954521  0.15029556  0.16874208     1.01800
O51         O  0.90774839  0.13008626  0.16650832    -0.78700
O52         O  0.95277650  0.17310359  0.12886924    -0.78900
C53         C  0.97581370  0.19774510  0.12025518     1.01700
O54         O  0.03252366  0.18086809  0.19705845    -0.86200
O55         O  0.99292018  0.23866608  0.22624335    -0.83300
C56         C  0.97643657  0.22806987  0.24994942     0.97300
O57         O  0.95080898  0.20409026  0.24906067    -0.83300
O58         O  0.91835368  0.13991798  0.22760569    -0.85900
C59         C  0.94101996  0.11309727  0.22485542     1.01700
O60         O  0.96644893  0.11340893  0.20469675    -0.78700
O61         O  0.01457607  0.14756785  0.15994180    -0.78900
C62         C  0.03667289  0.15146122  0.18119709     1.01700
Cr63       Cr  0.99324163  0.21948969  0.18384251     1.93700
Cr64       Cr  0.91905820  0.19252202  0.21367386     1.93200
Cr65       Cr  0.96043582  0.14412294  0.16676659     1.39100
O66         O  0.95710527  0.18586301  0.18837311    -1.24000
O67         O  0.94922271  0.22003722  0.43244867    -0.86200
O68         O  0.98745755  0.25707198  0.38844903    -0.83300
C69         C  0.99301573  0.28392341  0.37051952     0.97300
O70         O  0.99418601  0.31741536  0.38013446    -0.83300
O71         O  0.92314216  0.34166555  0.39333882    -0.85900
C72         C  0.89220954  0.34417248  0.40658753     1.01800
O73         O  0.88841522  0.33157056  0.43307882    -0.78700
O74         O  0.89958485  0.25513428  0.42653545    -0.78900
C75         C  0.91575498  0.22399354  0.42379343     1.01700
O76         O  0.99575804  0.25838188  0.47825977    -0.86200
O77         O  0.03816137  0.28937546  0.43053475    -0.83300
C78         C  0.04374551  0.32373003  0.43609653     0.97300
O79         O  0.01699254  0.34615178  0.43826147    -0.83300
O80         O  0.94788546  0.37295047  0.45033493    -0.85900
C81         C  0.93955006  0.36445113  0.47744715     1.01700
O82         O  0.93398199  0.33076671  0.48473162    -0.78700
O83         O  0.93616051  0.25335666  0.48374160    -0.78900
C84         C  0.96812604  0.25100833  0.49506689     1.01700
Cr85       Cr  0.99049585  0.25912611  0.43287780     1.93700
Cr86       Cr  0.96989551  0.34100357  0.41684021     1.93200
Cr87       Cr  0.91775034  0.29298304  0.45538013     1.39100
O88         O  0.95954530  0.29782846  0.43466067    -1.24000
O89         O  0.76151742  0.03031207  0.11531101    -0.86200
O90         O  0.72112543  0.99092930  0.15670644    -0.83300
C91         C  0.69324324  0.98578988  0.17368062     0.97300
O92         O  0.66074212  0.98534004  0.16261872    -0.83300
O93         O  0.64291049  0.05863381  0.15223174    -0.85900
C94         C  0.64187685  0.09041581  0.14032412     1.01800
O95         O  0.65443687  0.09494492  0.11393983    -0.78700
O96         O  0.72764916  0.08114608  0.12146098    -0.78900
C97         C  0.75777763  0.06406188  0.12451457     1.01700
O98         O  0.72488618  0.98667745  0.06651690    -0.86200
O99         O  0.68891762  0.94347412  0.11046338    -0.83300
C100        C  0.65513175  0.93986234  0.10284710     0.97300
O101        O  0.63412886  0.96795117  0.10190229    -0.83300
O102        O  0.61222557  0.04068725  0.09348214    -0.85900
C103        C  0.62288495  0.05030327  0.06710043     1.01700
O104        O  0.65675671  0.05007116  0.06015134    -0.78700
O105        O  0.73265903  0.04658197  0.06311209    -0.78900
C106        C  0.73399398  0.01474139  0.05079369     1.01700
Cr107      Cr  0.72163116  0.98990069  0.11190961     1.93700
Cr108      Cr  0.64081493  0.01347471  0.12634418     1.93200
Cr109      Cr  0.69235381  0.06502359  0.09101434     1.39100
O110        O  0.68490495  0.02256292  0.11014934    -1.24000
O111        O  0.74940690  0.99909518  0.40414298    -0.86200
O112        O  0.71079991  0.02638218  0.35595075    -0.83300
C113        C  0.71078735  0.06131501  0.36159450     0.97300
O114        O  0.74034170  0.07961240  0.35762340    -0.83300
O115        O  0.81485687  0.09818436  0.35175125    -0.85900
C116        C  0.82852774  0.09897516  0.37796633     1.01800
O117        O  0.82787044  0.06962721  0.39359115    -0.78700
O118        O  0.80914530  0.99984251  0.41397958    -0.78900
C119        C  0.77558004  0.00026362  0.42289347     1.01700
O120        O  0.78690129  0.94382163  0.36558681    -0.86200
O121        O  0.75217599  0.97604281  0.31614001    -0.83300
C122        C  0.74222981  0.00014538  0.29703314     0.97300
O123        O  0.74584347  0.03464392  0.30314883    -0.83300
O124        O  0.82208617  0.04615400  0.30344973    -0.85900
C125        C  0.85540410  0.04329796  0.31203351     1.01700
O126        O  0.86251476  0.03786334  0.33982827    -0.78700
O127        O  0.84178490  0.96890836  0.35899142    -0.78900
C128        C  0.82131982  0.94046238  0.35978541     1.01700
Cr129      Cr  0.75297038  0.98889764  0.36013203     1.93700
Cr130      Cr  0.78115710  0.06141588  0.33103630     1.93200
Cr131      Cr  0.83161909  0.01915220  0.37501565     1.39100
O132        O  0.78890429  0.02279528  0.35533329    -1.24000
O133        O  0.51727404  0.26242478  0.42829328    -0.86200
O134        O  0.48334572  0.22072630  0.38472693    -0.83300
C135        C  0.47950389  0.19249525  0.36777277     0.97300
O136        O  0.47796530  0.15961995  0.37885932    -0.83300
O137        O  0.54868961  0.13872680  0.39497194    -0.85900
C138        C  0.57894364  0.13842390  0.40896250     1.01800
O139        O  0.58094783  0.15368856  0.43476536    -0.78700
O140        O  0.56860608  0.22885360  0.42642515    -0.78900
C141        C  0.55177587  0.25911700  0.42182426     1.01700
O142        O  0.46790320  0.22659735  0.47419887    -0.86200
O143        O  0.43048296  0.18984016  0.42683314    -0.83300
C144        C  0.42533357  0.15611830  0.43482645     0.97300
O145        O  0.45257599  0.13458795  0.43865738    -0.83300
O146        O  0.52453619  0.11154137  0.45284134    -0.85900
C147        C  0.53252792  0.12427179  0.47890500     1.01700
O148        O  0.52774438  0.15809941  0.48443786    -0.78700
O149        O  0.52696530  0.23341103  0.48247173    -0.78900
C150        C  0.49382137  0.23567791  0.49197591     1.01700
Cr151      Cr  0.47685959  0.22223693  0.42899707     1.93700
Cr152      Cr  0.50091298  0.13968430  0.41758508     1.93200
Cr153      Cr  0.54826612  0.19283557  0.45533181     1.39100
O154        O  0.50879905  0.18503782  0.43314343    -1.24000
O155        O  0.49633631  0.25682149  0.13879907    -0.86200
O156        O  0.52532531  0.21919649  0.18656203    -0.83300
C157        C  0.56028725  0.22066226  0.18310466     0.97300
O158        O  0.57664456  0.25118772  0.18778683    -0.83300
O159        O  0.58931526  0.32712648  0.19200392    -0.85900
C160        C  0.59131304  0.33638273  0.16451615     1.01800
O161        O  0.56250155  0.33346195  0.14875093    -0.78700
O162        O  0.49090208  0.31614070  0.12940884    -0.78900
C163        C  0.49100345  0.28250882  0.11992421     1.01700
O164        O  0.44071500  0.29201509  0.17800871    -0.86200
O165        O  0.47313946  0.25609979  0.22682711    -0.83300
C166        C  0.49722697  0.24711764  0.24609260     0.97300
O167        O  0.53109919  0.25381388  0.24080161    -0.83300
O168        O  0.53648083  0.33133830  0.23994849    -0.85900
C169        C  0.53636692  0.36467733  0.23061261     1.01700
O170        O  0.53231339  0.37119045  0.20244694    -0.78700
O171        O  0.46355631  0.34833644  0.18546214    -0.78900
C172        C  0.43624420  0.32658127  0.18384599     1.01700
Cr173      Cr  0.48610854  0.25910786  0.18292254     1.93700
Cr174      Cr  0.55527964  0.29118757  0.21316497     1.93200
Cr175      Cr  0.51270246  0.33891136  0.16797749     1.39100
O176        O  0.51750754  0.29652074  0.18819838    -1.24000
O177        O  0.25156280  0.94719326  0.16883274    -0.86200
O178        O  0.20486295  0.99512131  0.13840379    -0.83300
C179        C  0.19330954  0.97195540  0.11886980     0.97300
O180        O  0.17154033  0.94617048  0.12703743    -0.83300
O181        O  0.13028840  0.89756089  0.16195227    -0.85900
C182        C  0.14988212  0.86921115  0.16699002     1.01800
O183        O  0.17860116  0.87176256  0.18309630    -0.78700
O184        O  0.24093676  0.90628284  0.20504693    -0.78900
C185        C  0.25930648  0.91656820  0.18199384     1.01700
O186        O  0.23478166  0.98459053  0.22470167    -0.86200
O187        O  0.17690719  0.02538644  0.19669130    -0.83300
C188        C  0.14772679  0.03015293  0.18111130     0.97300
O189        O  0.14195183  0.00719923  0.16014075    -0.83300
O190        O  0.10681346  0.95629093  0.20001190    -0.85900
C191        C  0.10571449  0.93187592  0.22066940     1.01700
O192        O  0.13342552  0.91123975  0.22619354    -0.78700
O193        O  0.19584793  0.94790456  0.24852565    -0.78900
C194        C  0.22164881  0.97191451  0.24909259     1.01700
Cr195      Cr  0.21437462  0.98552967  0.18274004     1.93700
Cr196      Cr  0.14075728  0.95178129  0.16419895     1.93200
Cr197      Cr  0.18676981  0.91264741  0.21369565     1.39100
O198        O  0.18063871  0.94959003  0.18724572    -1.24000
O199        O  0.24858647  0.99115772  0.38780707    -0.86200
O200        O  0.21116059  0.95345610  0.43187589    -0.83300
C201        C  0.21422179  0.92052789  0.42095856     0.97300
O202        O  0.24546760  0.90491212  0.42168256    -0.83300
O203        O  0.32071046  0.89209068  0.42930858    -0.85900
C204        C  0.33699376  0.89749046  0.40435167     1.01800
O205        O  0.33536025  0.92908026  0.39201514    -0.78700
O206        O  0.30857287  0.99984567  0.38020395    -0.78900
C207        C  0.27550802  0.99718486  0.37005597     1.01700
O208        O  0.27967189  0.04308504  0.42985188    -0.86200
O209        O  0.24921956  0.99974917  0.47722634    -0.83300
C210        C  0.24098925  0.97152312  0.49309332     0.97300
O211        O  0.24225114  0.93923656  0.48129759    -0.83300
O212        O  0.31633738  0.93647854  0.48317440    -0.85900
C213        C  0.35018595  0.93852462  0.47696274     1.01700
O214        O  0.36108449  0.95088877  0.45134601    -0.78700
O215        O  0.33477339  0.02190693  0.44086470    -0.78900
C216        C  0.31297391  0.04894605  0.43748429     1.01700
Cr217      Cr  0.24988185  0.99490297  0.43204770     1.93700
Cr218      Cr  0.28154044  0.92107786  0.45223166     1.93200
Cr219      Cr  0.33160500  0.97513213  0.41730932     1.39100
O220        O  0.28793405  0.96372374  0.43335133    -1.24000
O221        O  0.45294341  0.76496453  0.36192195    -0.86200
O222        O  0.48741905  0.72510895  0.40694910    -0.83300
C223        C  0.49094435  0.69772022  0.42472367     0.97300
O224        O  0.49033321  0.66439782  0.41457278    -0.83300
O225        O  0.41865046  0.64439628  0.40053476    -0.85900
C226        C  0.38809871  0.64265142  0.38713717     1.01800
O227        O  0.38514839  0.65702707  0.36116973    -0.78700
O228        O  0.40066910  0.73392792  0.36752351    -0.78900
C229        C  0.41847454  0.76439007  0.36859612     1.01700
O230        O  0.49801856  0.72602522  0.31664250    -0.86200
O231        O  0.53752460  0.69013981  0.36403315    -0.83300
C232        C  0.54132466  0.65550904  0.35817526     0.97300
O233        O  0.51334551  0.63475784  0.35625413    -0.83300
O234        O  0.44314285  0.61252208  0.34320819    -0.85900
C235        C  0.43502800  0.62143463  0.31619060     1.01700
O236        O  0.43131645  0.65546767  0.30912399    -0.78700
O237        O  0.43845314  0.73297586  0.31094946    -0.78900
C238        C  0.47093565  0.73587463  0.30028489     1.01700
Cr239      Cr  0.49160899  0.72352751  0.36208318     1.93700
Cr240      Cr  0.46591458  0.64278044  0.37726827     1.93200
Cr241      Cr  0.41720969  0.69427633  0.33900448     1.39100
O242        O  0.45844459  0.68673375  0.35965688    -1.24000
O243        O  0.48872581  0.76142524  0.15699360    -0.86200
O244        O  0.45719971  0.72022215  0.11231024    -0.83300
C245        C  0.42180820  0.72090277  0.11476014     0.97300
O246        O  0.40444528  0.75060582  0.10908951    -0.83300
O247        O  0.38949536  0.82578306  0.10411795    -0.85900
C248        C  0.38824346  0.83792453  0.13116364     1.01800
O249        O  0.41758382  0.83758465  0.14634175    -0.78700
O250        O  0.48800483  0.82213824  0.16533867    -0.78900
C251        C  0.48745827  0.78865137  0.17518995     1.01700
O252        O  0.54048439  0.79678052  0.11450086    -0.86200
O253        O  0.50711657  0.75679020  0.06818038    -0.83300
C254        C  0.48243861  0.74631349  0.04989968     0.97300
O255        O  0.44892162  0.75075773  0.05712342    -0.83300
O256        O  0.44812217  0.82647665  0.05684789    -0.85900
C257        C  0.44029217  0.85955805  0.06308844     1.01700
O258        O  0.44329748  0.87070899  0.09039199    -0.78700
O259        O  0.51484493  0.85182056  0.10694895    -0.78900
C260        C  0.54313459  0.83116693  0.10734009     1.01700
Cr261      Cr  0.49618046  0.76159307  0.11274685     1.93700
Cr262      Cr  0.42551294  0.78944764  0.08360988     1.93200
Cr263      Cr  0.46630623  0.84205430  0.12592205     1.39100
O264        O  0.46258428  0.79724136  0.10831793    -1.24000
O265        O  0.99108147  0.71737710  0.15679443    -0.86200
O266        O  0.03117844  0.75352255  0.11310542    -0.83300
C267        C  0.06540183  0.74687145  0.11847371     0.97300
O268        O  0.07986776  0.71581195  0.11151413    -0.83300
O269        O  0.08615255  0.64000745  0.10063980    -0.85900
C270        C  0.08767808  0.63141703  0.12810445     1.01800
O271        O  0.05922028  0.63585048  0.14437947    -0.78700
O272        O  0.99036353  0.65688014  0.16523291    -0.78900
C273        C  0.98862855  0.69026619  0.17498901     1.01700
O274        O  0.93942898  0.68760162  0.11322027    -0.86200
O275        O  0.97971646  0.72241391  0.06645078    -0.83300
C276        C  0.00629628  0.73048882  0.04877167     0.97300
O277        O  0.03849012  0.72411352  0.05804056    -0.83300
O278        O  0.03471530  0.64489747  0.05349329    -0.85900
C279        C  0.03142147  0.61105448  0.06176884     1.01700
O280        O  0.02571746  0.60334202  0.08962790    -0.78700
O281        O  0.95862315  0.62899764  0.10992204    -0.80500
C282        C  0.93286852  0.65281708  0.11035584     1.01700
Cr283      Cr  0.98749091  0.71715722  0.11170803     1.93700
Cr284      Cr  0.05630701  0.68109965  0.08275932     1.93200
Cr285      Cr  0.00905141  0.63468280  0.12580622     1.39100
O286        O  0.01686138  0.67755650  0.10690188    -1.24000
O287        O  0.01887799  0.71807736  0.36176285    -0.86200
O288        O  0.98613047  0.75911100  0.40656900    -0.83300
C289        C  0.98784360  0.78640142  0.42465127     0.97300
O290        O  0.98813382  0.81978860  0.41486644    -0.83300
O291        O  0.05568380  0.83835580  0.39263295    -0.85900
C292        C  0.08431227  0.84027676  0.37650035     1.01800
O293        O  0.08406861  0.82671693  0.35003584    -0.78700
O294        O  0.07073521  0.75083212  0.35978883    -0.78900
C295        C  0.05387179  0.72074116  0.36561632     1.01700
O296        O  0.96839682  0.75255678  0.31784060    -0.86200
O297        O  0.93247462  0.79144295  0.36433943    -0.83300
C298        C  0.92870611  0.82612653  0.35877213     0.97300
O299        O  0.95628615  0.84753962  0.35875452    -0.83300
O300        O  0.02349320  0.86877407  0.33685332    -0.85900
C301        C  0.02725529  0.85855449  0.30922924     1.01700
O302        O  0.03087670  0.82429605  0.30290811    -0.78700
O303        O  0.02705988  0.74727015  0.30638249    -0.78900
C304        C  0.99344561  0.74189480  0.29958688     1.01700
Cr305      Cr  0.97879902  0.75844598  0.36217225     1.93700
Cr306      Cr  0.00609823  0.83985593  0.37431261     1.93200
Cr307      Cr  0.04994312  0.78786627  0.33191236     1.39100
O308        O  0.01119483  0.79547055  0.35632117    -1.24000
O309        O  0.21940255  0.52450523  0.17695144    -0.86200
O310        O  0.25683295  0.48896797  0.13229038    -0.83300
C311        C  0.28320582  0.48905173  0.11332234     0.97300
O312        O  0.31679332  0.49048737  0.12209108    -0.83300
O313        O  0.33712065  0.55979094  0.14043727    -0.85900
C314        C  0.33939523  0.58981545  0.15490348     1.01800
O315        O  0.32675006  0.59143752  0.18150975    -0.78700
O316        O  0.25125555  0.57688174  0.17311362    -0.78900
C317        C  0.22129652  0.55896946  0.17005964     1.01700
O318        O  0.25668563  0.47818981  0.22229426    -0.86200
O319        O  0.29058975  0.43828283  0.17459497    -0.83300
C320        C  0.32496208  0.43405801  0.17897334     0.97300
O321        O  0.34674161  0.46154113  0.17881377    -0.83300
O322        O  0.36913092  0.53190680  0.19655429    -0.85900
C323        C  0.35993794  0.54035189  0.22380102     1.01700
O324        O  0.32609768  0.54278204  0.23122096    -0.78700
O325        O  0.24898119  0.53794389  0.22835241    -0.78900
C326        C  0.24697679  0.50541984  0.23900539     1.01700
Cr327      Cr  0.25897043  0.48483154  0.17693505     1.93700
Cr328      Cr  0.33903897  0.51108611  0.16099020     1.93200
Cr329      Cr  0.28878402  0.55885788  0.20168316     1.39100
O330        O  0.29584327  0.51781708  0.17965641    -1.24000
O331        O  0.20476271  0.47608680  0.38169567    -0.86200
O332        O  0.25249987  0.52403421  0.41251362    -0.83300
C333        C  0.25906348  0.55557080  0.42466639     0.97300
O334        O  0.23700394  0.56938247  0.44400476    -0.83300
O335        O  0.17055735  0.59558967  0.42230086    -0.85900
C336        C  0.13905984  0.59570351  0.41017901     1.01800
O337        O  0.12055493  0.56598378  0.40850544    -0.78700
O338        O  0.16150951  0.51757427  0.37129139    -0.78900
C339        C  0.18807037  0.49667771  0.36272792     1.01700
O340        O  0.18280482  0.44373583  0.44046028    -0.86200
O341        O  0.23488065  0.48824736  0.46856068    -0.83300
C342        C  0.22359762  0.50493365  0.49216916     0.97300
O343        O  0.19873114  0.52974598  0.49079394    -0.83300
O344        O  0.13255932  0.55798074  0.47082887    -0.85900
C345        C  0.10677173  0.53401512  0.47017422     1.01700
O346        O  0.10630378  0.50834735  0.45014855    -0.78700
O347        O  0.13828039  0.45649655  0.40892114    -0.78900
C348        C  0.15331956  0.43430696  0.42724715     1.01700
Cr349      Cr  0.21531578  0.48576325  0.42614906     1.93700
Cr350      Cr  0.18423296  0.55940587  0.45474249     1.93200
Cr351      Cr  0.13568412  0.51247263  0.41135861     1.39100
O352        O  0.17865687  0.51932326  0.43096156    -1.24000
C353        C  0.22727292  0.52627659  0.32242112    -0.02700
C354        C  0.20195147  0.49812578  0.33069188     0.07000
C355        C  0.19126358  0.47168083  0.30856155    -0.02800
C356        C  0.20734626  0.47231905  0.27904547    -0.02800
C357        C  0.23254731  0.50108922  0.27077514     0.07100
C358        C  0.24157961  0.52864766  0.29278468    -0.03000
Br359      Br  0.27358114  0.57085097  0.28346881    -0.01600
Br360      Br  0.24278764  0.56245672  0.35173136    -0.01600
Br361      Br  0.19282938  0.43499262  0.24974102    -0.01600
Br362      Br  0.15246984  0.43655285  0.31796175    -0.01600
C363        C  0.28373476  0.51948774  0.06162067    -0.02700
C364        C  0.27353704  0.48898706  0.08031112     0.07000
C365        C  0.24919738  0.46158506  0.06838719    -0.02800
C366        C  0.23433894  0.46548056  0.03894534    -0.02800
C367        C  0.24208869  0.49770462  0.02168179     0.07100
C368        C  0.26754972  0.52413419  0.03287010    -0.03000
Br369      Br  0.27995305  0.56740060  0.50865099    -0.01600
Br370      Br  0.31838778  0.55660305  0.07526155    -0.01600
Br371      Br  0.20296439  0.42697271  0.02246419    -0.01600
Br372      Br  0.23606825  0.41847669  0.09229452    -0.01600
C373        C  0.06725062  0.67156894  0.40446458    -0.02700
C374        C  0.07583620  0.68833775  0.37642419     0.07000
C375        C  0.10756152  0.67590919  0.36004397    -0.02800
C376        C  0.12868765  0.64551337  0.37086476    -0.02800
C377        C  0.12138248  0.63078866  0.39983608     0.07100
C378        C  0.09211342  0.64594226  0.41726716    -0.03000
Br379      Br  0.08834533  0.63477826  0.45972629    -0.01600
Br380      Br  0.02092884  0.68150370  0.42511427    -0.01600
Br381      Br  0.16642577  0.62326016  0.34556393    -0.01600
Br382      Br  0.12114192  0.69877639  0.32196340    -0.01600
C383        C  0.15720419  0.62441844  0.12769997    -0.02700
C384        C  0.12211645  0.61437014  0.14004949     0.07000
C385        C  0.12021003  0.58592534  0.16216754    -0.02800
C386        C  0.15293311  0.57045789  0.17378163    -0.02800
C387        C  0.18749674  0.57855445  0.15998451     0.07100
C388        C  0.18927361  0.60472645  0.13617678    -0.03000
Br389      Br  0.23458354  0.61131503  0.11297148    -0.01600
Br390      Br  0.16253862  0.66558725  0.09957751    -0.01600
Br391      Br  0.14984489  0.53966999  0.20969607    -0.01600
Br392      Br  0.07341826  0.56363876  0.17388877    -0.01600
C393        C  0.02745074  0.58073802  0.00976015    -0.02700
C394        C  0.04080179  0.58040199  0.03980785     0.07000
C395        C  0.06854673  0.55403574  0.04740165    -0.02800
C396        C  0.08805096  0.53486304  0.02438084    -0.02800
C397        C  0.07748129  0.53850332  0.49378959     0.07100
C398        C  0.04478425  0.55853896  0.48704736    -0.03000
Br399      Br  0.02662912  0.55877727  0.44604724    -0.01600
Br400      Br  0.98633018  0.61268990  0.99948127    -0.01600
Br401      Br  0.13267996  0.50809796  0.03468416    -0.01600
Br402      Br  0.08334664  0.54611553  0.08882057    -0.01600
C403        C  0.95833679  0.72519252  0.21905873    -0.02700
C404        C  0.98421810  0.69814641  0.20840088     0.07000
C405        C  0.00679472  0.67995517  0.22996832    -0.02800
C406        C  0.00676117  0.69189477  0.26054664    -0.02800
C407        C  0.98488978  0.72267346  0.27009220     0.07100
C408        C  0.95815440  0.73680728  0.24984703    -0.03000
Br409      Br  0.92074967  0.77141717  0.26413412    -0.01600
Br410      Br  0.92219513  0.74574961  0.19171011    -0.01600
Br411      Br  0.03458906  0.66402088  0.29013923    -0.01600
Br412      Br  0.03987870  0.64013390  0.21799693    -0.01600
C413        C  0.02747175  0.76464713  0.46729924    -0.02700
C414        C  0.99280164  0.77795769  0.45759746     0.07000
C415        C  0.96293444  0.77849988  0.47837358    -0.02800
C416        C  0.96708214  0.76408284  0.00821433    -0.02800
C417        C  0.00132911  0.74783469  0.01754885     0.07100
C418        C  0.03171680  0.74883776  0.49638769    -0.03000
Br419      Br  0.07994274  0.72703442  0.00488263    -0.01600
Br420      Br  0.06980818  0.76827868  0.44009649    -0.01600
Br421      Br  0.92521918  0.76782444  0.03566986    -0.01600
Br422      Br  0.91631640  0.79932253  0.46565243    -0.01600
C423        C  0.41573640  0.65025559  0.12106401    -0.02700
C424        C  0.40007156  0.68674523  0.12372931     0.07000
C425        C  0.36272081  0.69020108  0.13471036    -0.02800
C426        C  0.34320402  0.65846412  0.14484446    -0.02800
C427        C  0.35881610  0.62254643  0.14174004     0.07100
C428        C  0.39438052  0.61842047  0.12838243    -0.03000
Br429      Br  0.41533359  0.56902046  0.12148358    -0.01600
Br430      Br  0.46669984  0.64202525  0.10815944    -0.01600
Br431      Br  0.29416929  0.66439108  0.16265115    -0.01600
Br432      Br  0.33651916  0.73775582  0.13737036    -0.01600
C433        C  0.36023035  0.58483914  0.41158556    -0.02700
C434        C  0.35598920  0.62177885  0.40041870     0.07000
C435        C  0.32004904  0.63727568  0.39892679    -0.02800
C436        C  0.28875714  0.61592271  0.40732097    -0.02800
C437        C  0.29261620  0.57795216  0.41605162     0.07100
C438        C  0.32864508  0.56256786  0.41802675    -0.03000
Br439      Br  0.33494378  0.51099195  0.42989390    -0.01600
Br440      Br  0.40904839  0.56414677  0.41834670    -0.01600
Br441      Br  0.24050318  0.63912466  0.40502957    -0.01600
Br442      Br  0.31357822  0.68878333  0.38659937    -0.01600
C443        C  0.38358033  0.54234450  0.27755239    -0.02700
C444        C  0.38807016  0.55230000  0.24672067     0.07000
C445        C  0.41549279  0.57920300  0.23921552    -0.02800
C446        C  0.43418631  0.59909814  0.26214789    -0.02800
C447        C  0.42598145  0.59235953  0.29294773     0.07100
C448        C  0.40350633  0.56123943  0.30035394    -0.03000
Br449      Br  0.39851042  0.54441166  0.34154982    -0.01600
Br450      Br  0.34846156  0.50431370  0.28945299    -0.01600
Br451      Br  0.47136420  0.63576420  0.25116362    -0.01600
Br452      Br  0.42526480  0.59283730  0.19793879    -0.01600
C453        C  0.50738679  0.79111742  0.23080919    -0.02700
C454        C  0.48235048  0.77958103  0.20818040     0.07000
C455        C  0.45262016  0.75595109  0.21659039    -0.02800
C456        C  0.44873422  0.74247939  0.24637242    -0.02800
C457        C  0.47557453  0.75127439  0.26870010     0.07100
C458        C  0.50449558  0.77656760  0.26075389    -0.03000
Br459      Br  0.53901960  0.79333914  0.29106107    -0.01600
Br460      Br  0.54543004  0.82691419  0.22077640    -0.01600
Br461      Br  0.40576129  0.71148540  0.25534175    -0.01600
Br462      Br  0.41546806  0.74269101  0.18735841    -0.01600
C463        C  0.47203778  0.68580829  0.47914951    -0.02700
C464        C  0.49466874  0.70508736  0.45802996     0.07000
C465        C  0.51829817  0.73377462  0.46885801    -0.02800
C466        C  0.51759784  0.74434930  0.99980852    -0.02800
C467        C  0.49106863  0.72867184  0.01981180     0.07100
C468        C  0.46903754  0.69850188  0.00933747    -0.03000
Br469      Br  0.43352819  0.67437916  0.03599590    -0.01600
Br470      Br  0.44336627  0.64275959  0.46714196    -0.01600
Br471      Br  0.55214057  0.78137904  0.01414897    -0.01600
Br472      Br  0.55205332  0.75879493  0.44142941    -0.01600
C473        C  0.18264729  0.86045173  0.40270412    -0.02700
C474        C  0.18103992  0.89976035  0.40897783     0.07000
C475        C  0.14680832  0.91867503  0.40427040    -0.02800
C476        C  0.11479627  0.89835715  0.39636864    -0.02800
C477        C  0.11739995  0.86031293  0.38801097     0.07100
C478        C  0.15153552  0.84166636  0.39070026    -0.03000
Br479      Br  0.15478902  0.78926856  0.37978335    -0.01600
Br480      Br  0.22581212  0.83011466  0.41155691    -0.01600
Br481      Br  0.06705677  0.92289533  0.39807038    -0.01600
Br482      Br  0.14256585  0.97277466  0.40608539    -0.01600
C483        C  0.39564840  0.85972682  0.40318742    -0.02700
C484        C  0.36003890  0.86684630  0.39133382     0.07000
C485        C  0.34519833  0.84208538  0.36978738    -0.02800
C486        C  0.36442743  0.80885755  0.36195697    -0.02800
C487        C  0.39869186  0.80004629  0.37591380     0.07100
C488        C  0.41462576  0.82631817  0.39596158    -0.03000
Br489      Br  0.46166957  0.81617498  0.41510563    -0.01600
Br490      Br  0.41962095  0.89635866  0.42844370    -0.01600
Br491      Br  0.34440824  0.77669756  0.33088815    -0.01600
Br492      Br  0.29889337  0.85453109  0.35060238    -0.01600
C493        C  0.39063344  0.86184703  0.02454267    -0.02700
C494        C  0.41958330  0.88067296  0.04000795     0.07000
C495        C  0.42662180  0.91874873  0.03387406    -0.02800
C496        C  0.40493319  0.93794449  0.01235639    -0.02800
C497        C  0.37540236  0.91936350  0.49791797     0.07100
C498        C  0.36771361  0.88157707  0.00491141    -0.03000
Br499      Br  0.32392258  0.85613139  0.48962388    -0.01600
Br500      Br  0.37896906  0.80920579  0.03131408    -0.01600
Br501      Br  0.41310353  0.99027026  0.50464563    -0.01600
Br502      Br  0.46635111  0.94414192  0.05428772    -0.01600
C503        C  0.09766173  0.77768533  0.16236374    -0.02700
C504        C  0.08978994  0.77633726  0.13108234     0.07000
C505        C  0.10764112  0.80151819  0.11137049    -0.02800
C506        C  0.13081658  0.82974257  0.12302348    -0.02800
C507        C  0.13646780  0.83307884  0.15453698     0.07100
C508        C  0.12098735  0.80597397  0.17408105    -0.03000
Br509      Br  0.12963158  0.80914755  0.21711327    -0.01600
Br510      Br  0.07561474  0.74149160  0.18927582    -0.01600
Br511      Br  0.15499609  0.86391131  0.09563649    -0.01600
Br512      Br  0.10007644  0.79738849  0.06827619    -0.01600
C513        C  0.04551518  0.92291402  0.28913206    -0.02700
C514        C  0.03223643  0.88608887  0.28387193     0.07000
C515        C  0.03071234  0.87336721  0.25334820    -0.02800
C516        C  0.05053996  0.89246010  0.23059420    -0.02800
C517        C  0.07138278  0.92433980  0.23801308     0.07100
C518        C  0.06557516  0.94164380  0.26617192    -0.03000
Br519      Br  0.08630147  0.99041555  0.27298471    -0.01600
Br520      Br  0.03708607  0.94839023  0.32695085    -0.01600
Br521      Br  0.05073232  0.87420859  0.18943316    -0.01600
Br522      Br  0.00237055  0.82965133  0.24205487    -0.01600
C523        C  0.25404745  0.98294180  0.04823021    -0.02700
C524        C  0.22842657  0.97545374  0.02498243     0.07000
C525        C  0.19114071  0.96795125  0.03253227    -0.02800
C526        C  0.17930019  0.96827580  0.06304554    -0.02800
C527        C  0.20497670  0.97534880  0.08651313     0.07100
C528        C  0.24234383  0.98375409  0.07878344    -0.03000
Br529      Br  0.27887605  0.99403638  0.10969505    -0.01600
Br530      Br  0.30609920  0.98822458  0.03884146    -0.01600
Br531      Br  0.12725419  0.96086256  0.07209531    -0.01600
Br532      Br  0.15634093  0.95612646  0.50081517    -0.01600
C533        C  0.27518397  0.97461013  0.28563273    -0.02700
C534        C  0.23825250  0.98428079  0.27841406     0.07000
C535        C  0.21834259  0.00733443  0.29874620    -0.02800
C536        C  0.23281159  0.01548332  0.32769254    -0.02800
C537        C  0.26694572  0.99960083  0.33699078     0.07100
C538        C  0.28918496  0.98114924  0.31500730    -0.03000
Br539      Br  0.33822018  0.96327037  0.32475728    -0.01600
Br540      Br  0.30733923  0.95377833  0.25498205    -0.01600
Br541      Br  0.20685778  0.05032867  0.35395239    -0.01600
Br542      Br  0.17306744  0.03061320  0.28578232    -0.01600
C543        C  0.31446690  0.87223143  0.18867805    -0.02700
C544        C  0.28986848  0.89211581  0.16979368     0.07000
C545        C  0.29353013  0.88714305  0.13828371    -0.02800
C546        C  0.32548794  0.87040503  0.12559025    -0.02800
C547        C  0.35315571  0.85458741  0.14443731     0.07100
C548        C  0.34665147  0.85505177  0.17631475    -0.03000
Br549      Br  0.38119677  0.83271001  0.20422131    -0.01600
Br550      Br  0.30243732  0.86371633  0.23082230    -0.01600
Br551      Br  0.33085668  0.87309377  0.08222726    -0.01600
Br552      Br  0.25123508  0.89592331  0.11277541    -0.01600
C553        C  0.37344709  0.34254010  0.16330378    -0.02700
C554        C  0.39894404  0.34352985  0.18741606     0.07000
C555        C  0.39217887  0.36788256  0.21210572    -0.02800
C556        C  0.36259912  0.39328489  0.21128947    -0.02800
C557        C  0.34143225  0.39692415  0.18496843     0.07100
C558        C  0.34501886  0.36979082  0.16182408    -0.03000
Br559      Br  0.31382596  0.37229801  0.12681791    -0.01600
Br560      Br  0.38054938  0.30756959  0.13034058    -0.01600
Br561      Br  0.35255008  0.42560541  0.24530895    -0.01600
Br562      Br  0.42573570  0.37018858  0.24564877    -0.01600
C563        C  0.36430429  0.13489150  0.41285558    -0.02700
C564        C  0.38735903  0.13997829  0.43832536     0.07000
C565        C  0.37710234  0.12282594  0.46586184    -0.02800
C566        C  0.34778132  0.09683050  0.46682724    -0.02800
C567        C  0.32883023  0.08716964  0.44020884     0.07100
C568        C  0.33477783  0.10877968  0.41394185    -0.03000
Br569      Br  0.30452880  0.10023243  0.37875623    -0.01600
Br570      Br  0.37562289  0.16005412  0.37543580    -0.01600
Br571      Br  0.33399288  0.07332702  0.50439474    -0.01600
Br572      Br  0.40431755  0.13345142  0.50205016    -0.01600
C573        C  0.47936118  0.23402260  0.07821265    -0.02700
C574        C  0.48552305  0.27210845  0.08663460     0.07000
C575        C  0.48747470  0.29876750  0.06266000    -0.02800
C576        C  0.48710866  0.28696496  0.03176905    -0.02800
C577        C  0.48651950  0.24861250  0.02400822     0.07100
C578        C  0.48195015  0.22243196  0.04757743    -0.03000
Br579      Br  0.48018314  0.16988925  0.53861326    -0.01600
Br580      Br  0.46406044  0.19671553  0.10761320    -0.01600
Br581      Br  0.48619934  0.32334392  0.99961557    -0.01600
Br582      Br  0.48995371  0.35176919  0.07092216    -0.01600
C583        C  0.45417342  0.22825385  0.32369629    -0.02700
C584        C  0.47732496  0.19931183  0.33449858     0.07000
C585        C  0.50260230  0.18202305  0.31413198    -0.02800
C586        C  0.50755222  0.19639303  0.28460082    -0.02800
C587        C  0.48687992  0.22779861  0.27487944     0.07100
C588        C  0.45853539  0.24199677  0.29395714    -0.03000
Br589      Br  0.42668682  0.28166391  0.28033827    -0.01600
Br590      Br  0.41668322  0.24993350  0.34996546    -0.01600
Br591      Br  0.54264031  0.17245604  0.25733870    -0.01600
Br592      Br  0.53264905  0.14032089  0.32676539    -0.01600
C593        C  0.86647133  0.90136292  0.33017971    -0.02700
C594        C  0.83958069  0.90346023  0.35364084     0.07000
C595        C  0.83522583  0.87216698  0.37299203    -0.02800
C596        C  0.86170831  0.84261244  0.37220127    -0.02800
C597        C  0.89234243  0.84437096  0.35206659     0.07100
C598        C  0.89210148  0.87174019  0.32911882    -0.03000
Br599      Br  0.92866378  0.86979502  0.29685732    -0.01600
Br600      Br  0.86994989  0.94014341  0.29996070    -0.01600
Br601      Br  0.85672129  0.80068832  0.39914689    -0.01600
Br602      Br  0.79485506  0.87056154  0.40177267    -0.01600
C603        C  0.67008699  0.11965434  0.36709809    -0.02700
C604        C  0.67608441  0.08084638  0.37277619     0.07000
C605        C  0.64928133  0.06140527  0.39060569    -0.02800
C606        C  0.61776364  0.08031584  0.40235489    -0.02800
C607        C  0.61180654  0.11851095  0.39605909     0.07100
C608        C  0.63800526  0.13797286  0.37845077    -0.03000
Br609      Br  0.62980767  0.19037459  0.37039378    -0.01600
Br610      Br  0.70496427  0.14905142  0.34366550    -0.01600
Br611      Br  0.58330603  0.05392778  0.42827834    -0.01600
Br612      Br  0.65594683  0.00934154  0.40142201    -0.01600
C613        C  0.60887429  0.84808384  0.12153442    -0.02700
C614        C  0.57957788  0.84927678  0.10046768     0.07000
C615        C  0.58288967  0.87344146  0.07521620    -0.02800
C616        C  0.61275845  0.89879809  0.07317843    -0.02800
C617        C  0.63763535  0.90266370  0.09744939     0.07100
C618        C  0.63741820  0.87525732  0.12039888    -0.03000
Br619      Br  0.67391440  0.87702178  0.15196753    -0.01600
Br620      Br  0.60809943  0.81199439  0.15382239    -0.01600
Br621      Br  0.62000720  0.92864845  0.03725753    -0.01600
Br622      Br  0.54549072  0.87375353  0.04412724    -0.01600
C623        C  0.62130188  0.18811883  0.16896758    -0.02700
C624        C  0.58208671  0.18623228  0.17434891     0.07000
C625        C  0.56411257  0.15080919  0.17098981    -0.02800
C626        C  0.58452615  0.11900562  0.16187162    -0.02800
C627        C  0.62266376  0.12182888  0.15542531     0.07100
C628        C  0.64108470  0.15605181  0.15947868    -0.03000
Br629      Br  0.69413196  0.15862205  0.15217747    -0.01600
Br630      Br  0.64988004  0.23383445  0.17315814    -0.01600
Br631      Br  0.55951780  0.07153152  0.15611369    -0.01600
Br632      Br  0.51123893  0.14369820  0.17744462    -0.01600
C633        C  0.56629697  0.05010220  0.03384757    -0.02700
C634        C  0.59754507  0.06848289  0.04581808     0.07000
C635        C  0.60673150  0.10482738  0.03604750    -0.02800
C636        C  0.58645999  0.12175675  0.01315847    -0.02800
C637        C  0.55491668  0.10343473  0.50091046     0.07100
C638        C  0.54504028  0.06755715  0.01115970    -0.03000
Br639      Br  0.50201960  0.04296935  0.99489633    -0.01600
Br640      Br  0.55268362  0.00145707  0.04862530    -0.01600
Br641      Br  0.60390459  0.17003237  0.49876380    -0.01600
Br642      Br  0.64601070  0.13344103  0.05502407    -0.01600
C643        C  0.73683579  0.03952934  0.99692682    -0.02700
C644        C  0.74603147  0.01118567  0.01818216     0.07000
C645        C  0.76675111  0.97982508  0.50773157    -0.02800
C646        C  0.77735954  0.97667506  0.47685782    -0.02800
C647        C  0.76636930  0.00391910  0.45573758     0.07100
C648        C  0.74608096  0.03532372  0.46597198    -0.03000
Br649      Br  0.73153744  0.07365361  0.43757187    -0.01600
Br650      Br  0.71127734  0.08486889  0.00887906    -0.01600
Br651      Br  0.80641663  0.93449317  0.46332011    -0.01600
Br652      Br  0.78256209  0.94160931  0.53561344    -0.01600
C653        C  0.74091278  0.96229203  0.24811583    -0.02700
C654        C  0.72464156  0.98915952  0.26772079     0.07000
C655        C  0.69230729  0.00800719  0.25815678    -0.02800
C656        C  0.67955861  0.00407907  0.22815721    -0.02800
C657        C  0.69947186  0.98171587  0.20702772     0.07100
C658        C  0.72894923  0.95922275  0.21773976    -0.03000
Br659      Br  0.75287065  0.92371049  0.19085198    -0.01600
Br660      Br  0.77979445  0.92987177  0.26234980    -0.01600
Br661      Br  0.63575496  0.03123997  0.21646415    -0.01600
Br662      Br  0.66440623  0.03845931  0.28666434    -0.01600
C663        C  0.10534314  0.34153605  0.41315400    -0.02700
C664        C  0.08146039  0.34000873  0.43864978     0.07000
C665        C  0.08817083  0.36406176  0.46324245    -0.02800
C666        C  0.11291159  0.39416989  0.46010782    -0.02800
C667        C  0.13458430  0.39805109  0.43360900     0.07100
C668        C  0.13260191  0.36995136  0.41111170    -0.03000
Br669      Br  0.16612013  0.37152765  0.37701810    -0.01600
Br670      Br  0.09828357  0.30753457  0.37973681    -0.01600
Br671      Br  0.11193087  0.43295054  0.49009226    -0.01600
Br672      Br  0.06109670  0.35701586  0.50055357    -0.01600
C673        C  0.86668262  0.15819139  0.36919257    -0.02700
C674        C  0.84819927  0.13329724  0.38947664     0.07000
C675        C  0.85162506  0.13981468  0.42110386    -0.02800
C676        C  0.87553978  0.16793258  0.43212010    -0.02800
C677        C  0.89429126  0.19180251  0.41193340     0.07100
C678        C  0.88912771  0.18741550  0.38054524    -0.03000
Br679      Br  0.91350759  0.22146644  0.35297895    -0.01600
Br680      Br  0.86268632  0.15323147  0.32561631    -0.01600
Br681      Br  0.88271944  0.17404420  0.47518056    -0.01600
Br682      Br  0.82117709  0.11315580  0.44996355    -0.01600
C683        C  0.12791109  0.09710170  0.19739661    -0.02700
C684        C  0.11936926  0.06119677  0.18534143     0.07000
C685        C  0.08251705  0.05498426  0.17482264    -0.02800
C686        C  0.05601527  0.08390145  0.17491366    -0.02800
C687        C  0.06485816  0.12049783  0.18574497     0.07100
C688        C  0.10073754  0.12631670  0.19796678    -0.03000
Br689      Br  0.11373879  0.17475433  0.21410331    -0.01600
Br690      Br  0.17760825  0.10777371  0.21086993    -0.01600
Br691      Br  0.00714974  0.07089276  0.15909160    -0.01600
Br692      Br  0.06593063  0.00671288  0.15896668    -0.01600
C693        C  0.81500859  0.10088833  0.11564870    -0.02700
C694        C  0.78913547  0.08578609  0.13623174     0.07000
C695        C  0.78971982  0.09682865  0.16696070    -0.02800
C696        C  0.81774834  0.12102161  0.17740832    -0.02800
C697        C  0.84471261  0.13476730  0.15699112     0.07100
C698        C  0.84274880  0.12522259  0.12599841    -0.03000
Br699      Br  0.87819559  0.14530271  0.09747765    -0.01600
Br700      Br  0.81169726  0.08922845  0.07298611    -0.01600
Br701      Br  0.82071562  0.13331056  0.21995195    -0.01600
Br702      Br  0.75253476  0.07817552  0.19479139    -0.01600
C703        C  0.91916031  0.06888077  0.29822685    -0.02700
C704        C  0.88625750  0.04972452  0.28961236     0.07000
C705        C  0.88135837  0.04102765  0.25848083    -0.02800
C706        C  0.90568798  0.05595266  0.23644364    -0.02800
C707        C  0.93389627  0.08091594  0.24496014     0.07100
C708        C  0.94231212  0.08484244  0.27580530    -0.03000
Br709      Br  0.98364550  0.11575835  0.28700024    -0.01600
Br710      Br  0.93172345  0.07736246  0.34023561    -0.01600
Br711      Br  0.89832571  0.04554739  0.19401026    -0.01600
Br712      Br  0.84066285  0.01014963  0.24512104    -0.01600
C713        C  0.94397668  0.23252727  0.07860124    -0.02700
C714        C  0.97486584  0.21192733  0.08853160     0.07000
C715        C  0.00490440  0.20590285  0.06840613    -0.02800
C716        C  0.00330557  0.21866961  0.03803785    -0.02800
C717        C  0.97182671  0.23882243  0.02762668     0.07100
C718        C  0.94262925  0.24651247  0.04876651    -0.03000
Br719      Br  0.90094721  0.27825960  0.03849368    -0.01600
Br720      Br  0.90372133  0.24310964  0.10652881    -0.01600
Br721      Br  0.04397084  0.20644493  0.01099579    -0.01600
Br722      Br  0.04785305  0.17881692  0.08245768    -0.01600
C723        C  0.96757177  0.27912258  0.28795086    -0.02700
C724        C  0.98581126  0.24591191  0.27905278     0.07000
C725        C  0.01284086  0.23026877  0.29795704    -0.02800
C726        C  0.01695611  0.24383204  0.32773350    -0.02800
C727        C  0.99641409  0.27544143  0.33767210     0.07100
C728        C  0.97437347  0.29498638  0.31658610    -0.03000
Br729      Br  0.95242577  0.34284496  0.32642860    -0.01600
Br730      Br  0.93208897  0.30229511  0.26137920    -0.01600
Br731      Br  0.05102367  0.21908186  0.35461407    -0.01600
Br732      Br  0.04497955  0.19139139  0.28255801    -0.01600
C733        C  0.87807248  0.62688962  0.13753361    -0.02700
C734        C  0.89453934  0.63792342  0.10987545     0.07000
C735        C  0.87935912  0.62499950  0.08243756    -0.02800
C736        C  0.85116140  0.59754931  0.08277179    -0.02800
C737        C  0.83772236  0.58343936  0.11054289     0.07100
C738        C  0.84936682  0.60014199  0.13783347    -0.03000
Br739      Br  0.82949810  0.58280541  0.17598399    -0.01600
Br740      Br  0.89837614  0.64431820  0.17532447    -0.01600
Br741      Br  0.83282494  0.57686842  0.04541228    -0.01600
Br742      Br  0.89958014  0.64266801  0.04460391    -0.01600
C743        C  0.68922692  0.37853422  0.16137528    -0.02700
C744        C  0.68951060  0.39546949  0.13272143     0.07000
C745        C  0.65916387  0.39072371  0.11328366    -0.02800
C746        C  0.62765870  0.37037592  0.12284839    -0.02800
C747        C  0.62645243  0.35373919  0.15219098     0.07100
C748        C  0.65871485  0.35666811  0.17073969    -0.03000
Br749      Br  0.66373028  0.33032259  0.20884067    -0.01600
Br750      Br  0.72997830  0.38762102  0.18881674    -0.01600
Br751      Br  0.58734305  0.36604347  0.09438882    -0.01600
Br752      Br  0.66141926  0.41149072  0.07284128    -0.01600
C753        C  0.84515299  0.32784046  0.15924208    -0.02700
C754        C  0.86221388  0.36286863  0.15635465     0.07000
C755        C  0.89924076  0.36775759  0.16612828    -0.02800
C756        C  0.92069487  0.33632498  0.17423106    -0.02800
C757        C  0.90413666  0.30055686  0.17556521     0.07100
C758        C  0.86550095  0.29714279  0.16980887    -0.03000
Br759      Br  0.83898115  0.25087802  0.17542025    -0.01600
Br760      Br  0.79303931  0.32231957  0.14989361    -0.01600
Br761      Br  0.97240427  0.34273399  0.18420074    -0.01600
Br762      Br  0.92129666  0.41713214  0.16750072    -0.01600
C763        C  0.91867557  0.40150814  0.05444618    -0.02700
C764        C  0.89195906  0.42908805  0.04762436     0.07000
C765        C  0.88934627  0.44242538  0.01773626    -0.02800
C766        C  0.90972794  0.42493659  0.49429282    -0.02800
C767        C  0.93220977  0.39353284  0.50076551     0.07100
C768        C  0.93962990  0.38478511  0.03118866    -0.03000
Br769      Br  0.97704986  0.34802020  0.04103974    -0.01600
Br770      Br  0.92267947  0.38098230  0.09430314    -0.01600
Br771      Br  0.90432660  0.44301020  0.45365027    -0.01600
Br772      Br  0.85546062  0.48272578  0.00856764    -0.01600
C773        C  0.60990028  0.58287021  0.33213979    -0.02700
C774        C  0.63428076  0.58087690  0.35692066     0.07000
C775        C  0.63326918  0.60997612  0.37862334    -0.02800
C776        C  0.60450971  0.63710319  0.37823274    -0.02800
C777        C  0.57829777  0.63705311  0.35455492     0.07100
C778        C  0.58331589  0.61169268  0.33033356    -0.03000
Br779      Br  0.55188431  0.61519273  0.29528371    -0.01600
Br780      Br  0.60940985  0.54403510  0.30217296    -0.01600
Br781      Br  0.59856125  0.67082441  0.41206853    -0.01600
Br782      Br  0.67100066  0.61193030  0.40911952    -0.01600
C783        C  0.60588408  0.32454623  0.37028959    -0.02700
C784        C  0.62205984  0.34907619  0.39161069     0.07000
C785        C  0.61410698  0.34434514  0.42271458    -0.02800
C786        C  0.59079629  0.31509240  0.43246230    -0.02800
C787        C  0.57389981  0.29130179  0.41115348     0.07100
C788        C  0.58181223  0.29578008  0.38004657    -0.03000
Br789      Br  0.55914625  0.26284904  0.35079545    -0.01600
Br790      Br  0.61488388  0.33163004  0.32754429    -0.01600
Br791      Br  0.58258449  0.30707130  0.47518859    -0.01600
Br792      Br  0.63449027  0.37836056  0.45215405    -0.01600
C793        C  0.59252930  0.44243108  0.26635455    -0.02700
C794        C  0.58274296  0.43874496  0.29723956     0.07000
C795        C  0.55203243  0.41645174  0.30513836    -0.02800
C796        C  0.53480232  0.39377680  0.28308957    -0.02800
C797        C  0.54640675  0.39529456  0.25229499     0.07100
C798        C  0.57347028  0.42218131  0.24384596    -0.03000
Br799      Br  0.58894621  0.42837566  0.20205214    -0.01600
Br800      Br  0.63588932  0.47079723  0.25496994    -0.01600
Br801      Br  0.49766222  0.35849018  0.29629899    -0.01600
Br802      Br  0.53733514  0.41285392  0.34720702    -0.01600
C803        C  0.79312424  0.36535842  0.38430757    -0.02700
C804        C  0.79521446  0.40400096  0.37729245     0.07000
C805        C  0.83044409  0.42129600  0.37567848    -0.02800
C806        C  0.86289927  0.40064579  0.38220291    -0.02800
C807        C  0.86013746  0.36327678  0.39241404     0.07100
C808        C  0.82525883  0.34547632  0.39248623    -0.03000
Br809      Br  0.82174609  0.29292786  0.40250319    -0.01600
Br810      Br  0.74641265  0.33885973  0.38347282    -0.01600
Br811      Br  0.91093321  0.42369369  0.37666066    -0.01600
Br812      Br  0.83456819  0.47288577  0.36320584    -0.01600
C813        C  0.72223844  0.44795072  0.47016219    -0.02700
C814        C  0.70175868  0.47966043  0.46140806     0.07000
C815        C  0.69744922  0.50921091  0.48246591    -0.02800
C816        C  0.71392908  0.50747809  0.51163841    -0.02800
C817        C  0.73415879  0.47509585  0.02077771     0.07100
C818        C  0.73847617  0.44552235  0.99918622    -0.03000
Br819      Br  0.76882239  0.40191356  0.00742908    -0.01600
Br820      Br  0.72900172  0.40741597  0.44176122    -0.01600
Br821      Br  0.70822513  0.55002147  0.53840756    -0.01600
Br822      Br  0.66656074  0.55107523  0.47195543    -0.01600
C823        C  0.77656981  0.46127420  0.26121618    -0.02700
C824        C  0.74675488  0.48358414  0.27145620     0.07000
C825        C  0.73369183  0.51256937  0.25284308    -0.02800
C826        C  0.74669695  0.51591248  0.22268872    -0.02800
C827        C  0.77455461  0.49157793  0.21135772     0.07100
C828        C  0.79102240  0.46576368  0.23160187    -0.03000
Br829      Br  0.83258359  0.43530567  0.21950991    -0.01600
Br830      Br  0.79752478  0.42431899  0.28803137    -0.01600
Br831      Br  0.72675802  0.55450264  0.19705312    -0.01600
Br832      Br  0.69885339  0.54833413  0.26902795    -0.01600
O833        O  0.70391152  0.50415747  0.91081065    -0.86200
O834        O  0.75312041  0.45606775  0.88157919    -0.83300
C835        C  0.76106524  0.42504556  0.86902466     0.97300
O836        O  0.74036841  0.41111727  0.84905906    -0.83300
O837        O  0.67265010  0.38347054  0.86925069    -0.85900
C838        C  0.64062124  0.38367595  0.88105794     1.01800
O839        O  0.62234941  0.41351842  0.88278420    -0.78700
O840        O  0.66158903  0.46157229  0.92043008    -0.78900
C841        C  0.68786436  0.48232318  0.92940766     1.01700
O842        O  0.68442343  0.53598826  0.85116753    -0.86200
O843        O  0.73887080  0.49135802  0.82475467    -0.83300
C844        C  0.72842077  0.47505479  0.80087405     0.97300
O845        O  0.70366286  0.45017399  0.80172696    -0.83300
O846        O  0.63754681  0.42093751  0.82027996    -0.85900
C847        C  0.61164247  0.44470576  0.82042090     1.01700
O848        O  0.60976242  0.47033695  0.84049183    -0.78700
O849        O  0.63892876  0.52277434  0.88214565    -0.78900
C850        C  0.65396284  0.54495774  0.86363414     1.01700
Cr851      Cr  0.71678017  0.49415966  0.86663726     1.93700
Cr852      Cr  0.68804178  0.42013921  0.83736885     1.93200
Cr853      Cr  0.63716698  0.46678041  0.87993379     1.39100
O854        O  0.68088326  0.46018064  0.86108645    -1.24000
O855        O  0.71920822  0.45065344  0.61436668    -0.86200
O856        O  0.75611132  0.48594730  0.65998967    -0.83300
C857        C  0.78283553  0.49043869  0.67802614     0.97300
O858        O  0.81580473  0.49393036  0.66789484    -0.83300
O859        O  0.83951130  0.42475236  0.65360506    -0.85900
C860        C  0.84216968  0.39346261  0.64112289     1.01800
O861        O  0.82913171  0.38842033  0.61493929    -0.78700
O862        O  0.75330625  0.40030791  0.62052746    -0.78900
C863        C  0.72242193  0.41673797  0.62248378     1.01700
O864        O  0.75663872  0.49811535  0.56985428    -0.86200
O865        O  0.78812642  0.53934709  0.61844406    -0.83300
C866        C  0.82187049  0.54534752  0.61173714     0.97300
O867        O  0.84412292  0.51860316  0.60851575    -0.83300
O868        O  0.87080772  0.44855026  0.59672114    -0.85900
C869        C  0.86264256  0.43868359  0.56991115     1.01700
O870        O  0.82933659  0.43368080  0.56233477    -0.78700
O871        O  0.75280382  0.43793843  0.56322058    -0.78900
C872        C  0.74897702  0.47061577  0.55272504     1.01700
Cr873      Cr  0.75801290  0.49148987  0.61525243     1.93700
Cr874      Cr  0.83912849  0.47100766  0.63019834     1.93200
Cr875      Cr  0.79141478  0.41832394  0.59190579     1.39100
O876        O  0.79638417  0.46044916  0.61255145    -1.24000
O877        O  0.99978515  0.21043168  0.63865966    -0.86200
O878        O  0.95692933  0.25939092  0.67163314    -0.83300
C879        C  0.92602617  0.26710778  0.68434069     0.97300
O880        O  0.91240511  0.24628507  0.70453931    -0.83300
O881        O  0.88126943  0.18158458  0.68195841    -0.85900
C882        C  0.87948897  0.15037207  0.66873382     1.01800
O883        O  0.90768250  0.13014567  0.66650920    -0.78700
O884        O  0.95274594  0.17312992  0.62887201    -0.78900
C885        C  0.97579457  0.19776290  0.62026226     1.01700
O886        O  0.03249313  0.18088175  0.69705925    -0.86200
O887        O  0.99289252  0.23869890  0.72623540    -0.83300
C888        C  0.97640097  0.22811462  0.74994024     0.97300
O889        O  0.95076799  0.20414018  0.74905494    -0.83300
O890        O  0.91828355  0.13997972  0.72760583    -0.85900
C891        C  0.94094776  0.11315570  0.72487076     1.01700
O892        O  0.96637450  0.11344609  0.70470969    -0.78700
O893        O  0.01453156  0.14755878  0.65995663    -0.78900
C894        C  0.03664089  0.15146709  0.68120392     1.01700
Cr895      Cr  0.99321437  0.21951448  0.68384130     1.93700
Cr896      Cr  0.91901599  0.19258033  0.71366860     1.93200
Cr897      Cr  0.96038231  0.14415304  0.66677449     1.39100
O898        O  0.95706666  0.18590031  0.68837395    -1.24000
O899        O  0.94917858  0.22003360  0.93241918    -0.86200
O900        O  0.98740891  0.25708851  0.88842472    -0.83300
C901        C  0.99297521  0.28394653  0.87050316     0.97300
O902        O  0.99416515  0.31743180  0.88012768    -0.83300
O903        O  0.92312849  0.34165341  0.89332777    -0.85900
C904        C  0.89219470  0.34416123  0.90657024     1.01800
O905        O  0.88838989  0.33156856  0.93306297    -0.78700
O906        O  0.89954174  0.25513431  0.92651979    -0.78900
C907        C  0.91570662  0.22399184  0.92377217     1.01700
O908        O  0.99572181  0.25835716  0.97823850    -0.86200
O909        O  0.03813081  0.28937992  0.93051467    -0.83300
C910        C  0.04371869  0.32373594  0.93607908     0.97300
O911        O  0.01696352  0.34615385  0.93825540    -0.83300
O912        O  0.94785307  0.37294882  0.95032567    -0.85900
C913        C  0.93952878  0.36444354  0.97743823     1.01700
O914        O  0.93395145  0.33075841  0.98471710    -0.78700
O915        O  0.93612228  0.25334765  0.98372595    -0.78900
C916        C  0.96808940  0.25098326  0.99504706     1.01700
Cr917      Cr  0.99045837  0.25912320  0.93285458     1.93700
Cr918      Cr  0.96986923  0.34100482  0.91683288     1.93200
Cr919      Cr  0.91771636  0.29297901  0.95536532     1.39100
O920        O  0.95951376  0.29782646  0.93464817    -1.24000
O921        O  0.76152351  0.03036323  0.61528714    -0.86200
O922        O  0.72115781  0.99094222  0.65668063    -0.83300
C923        C  0.69327804  0.98577178  0.67365154     0.97300
O924        O  0.66077964  0.98528895  0.66258487    -0.83300
O925        O  0.64286753  0.05856970  0.65220567    -0.85900
C926        C  0.64182810  0.09035539  0.64030382     1.01800
O927        O  0.65439611  0.09490392  0.61392402    -0.78700
O928        O  0.72761387  0.08117081  0.62142775    -0.78900
C929        C  0.75775593  0.06411319  0.62448339     1.01700
O930        O  0.72493972  0.98669664  0.56648989    -0.86200
O931        O  0.68899630  0.94345779  0.61042735    -0.83300
C932        C  0.65521650  0.93982139  0.60279921     0.97300
O933        O  0.63419390  0.96789461  0.60185658    -0.83300
O934        O  0.61222364  0.04060876  0.59345958    -0.85900
C935        C  0.62287118  0.05024582  0.56708161     1.01700
O936        O  0.65674071  0.05003401  0.56012597    -0.78700
O937        O  0.73264771  0.04661009  0.56308232    -0.78900
C938        C  0.73402515  0.01476889  0.55076800     1.01700
Cr939      Cr  0.72167128  0.98991602  0.61188235     1.93700
Cr940      Cr  0.64083169  0.01341345  0.62631215     1.93200
Cr941      Cr  0.69232915  0.06501521  0.59098754     1.39100
O942        O  0.68491709  0.02254751  0.61012262    -1.24000
O943        O  0.74936355  0.99904340  0.90415023    -0.86200
O944        O  0.71079322  0.02634660  0.85594244    -0.83300
C945        C  0.71080044  0.06128069  0.86158341     0.97300
O946        O  0.74036536  0.07955636  0.85761375    -0.83300
O947        O  0.81486896  0.09811370  0.85172503    -0.85900
C948        C  0.82850480  0.09893529  0.87795095     1.01800
O949        O  0.82783291  0.06959885  0.89359064    -0.78700
O950        O  0.80909677  0.99982848  0.91400954    -0.78900
C951        C  0.77552639  0.00023101  0.92291063     1.01700
O952        O  0.78686755  0.94375598  0.86560316    -0.86200
O953        O  0.75215653  0.97597696  0.81614098    -0.83300
C954        C  0.74221618  0.00007914  0.79703047     0.97300
O955        O  0.74583281  0.03457603  0.80314732    -0.83300
O956        O  0.82208264  0.04604401  0.80345186    -0.85900
C957        C  0.85539695  0.04321084  0.81204830     1.01700
O958        O  0.86249739  0.03778419  0.83984734    -0.78700
O959        O  0.84176499  0.96883885  0.85905707    -0.78900
C960        C  0.82129528  0.94039409  0.85983599     1.01700
Cr961      Cr  0.75294518  0.98884092  0.86013662     1.93700
Cr962      Cr  0.78116065  0.06133791  0.83102853     1.93200
Cr963      Cr  0.83159062  0.01910248  0.87504224     1.39100
O964        O  0.78888917  0.02272875  0.85534049    -1.24000
O965        O  0.51726360  0.26245646  0.92822719    -0.86200
O966        O  0.48335386  0.22074037  0.88466499    -0.83300
C967        C  0.47953552  0.19250319  0.86771257     0.97300
O968        O  0.47800670  0.15962899  0.87880260    -0.83300
O969        O  0.54872588  0.13874177  0.89491431    -0.85900
C970        C  0.57898760  0.13847303  0.90889229     1.01800
O971        O  0.58100650  0.15377228  0.93467833    -0.78700
O972        O  0.56859574  0.22889791  0.92632311    -0.78900
C973        C  0.55175347  0.25915042  0.92172380     1.01700
O974        O  0.46792870  0.22661375  0.97414890    -0.86200
O975        O  0.43051428  0.18984760  0.92678356    -0.83300
C976        C  0.42537902  0.15612953  0.93478619     0.97300
O977        O  0.45262697  0.13460361  0.93860957    -0.83300
O978        O  0.52460303  0.11156772  0.95277849    -0.85900
C979        C  0.53264453  0.12429856  0.97883055     1.01700
O980        O  0.52787528  0.15812792  0.98437046    -0.78700
O981        O  0.52699188  0.23343749  0.98241519    -0.78900
C982        C  0.49384857  0.23568205  0.99193077     1.01700
Cr983      Cr  0.47687596  0.22225275  0.92894039     1.93700
Cr984      Cr  0.50095805  0.13970347  0.91753038     1.93200
Cr985      Cr  0.54831317  0.19288569  0.95525326     1.39100
O986        O  0.50883159  0.18506115  0.93308632    -1.24000
O987        O  0.49637504  0.25685667  0.63876393    -0.86200
O988        O  0.52529215  0.21916865  0.68654178    -0.83300
C989        C  0.56025028  0.22061281  0.68305155     0.97300
O990        O  0.57661686  0.25113842  0.68768827    -0.83300
O991        O  0.58937724  0.32702763  0.69197203    -0.85900
C992        C  0.59137570  0.33634838  0.66450130     1.01800
O993        O  0.56254482  0.33353164  0.64874222    -0.78700
O994        O  0.49092514  0.31619260  0.62941131    -0.78900
C995        C  0.49102264  0.28256649  0.61991163     1.01700
O996        O  0.44074457  0.29205494  0.67795237    -0.86200
O997        O  0.47312690  0.25612179  0.72677347    -0.83300
C998        C  0.49720851  0.24709640  0.74602881     0.97300
O999        O  0.53108841  0.25375757  0.74073494    -0.83300
O1000       O  0.53657742  0.33126452  0.73993230    -0.85900
C1001       C  0.53644199  0.36461343  0.73061885     1.01700
O1002       O  0.53237115  0.37115926  0.70246249    -0.78700
O1003       O  0.46360455  0.34834682  0.68548716    -0.78900
C1004       C  0.43628265  0.32660914  0.68383686     1.01700
Cr1005     Cr  0.48611657  0.25912362  0.68287903     1.93700
Cr1006     Cr  0.55531200  0.29112112  0.71311506     1.93200
Cr1007     Cr  0.51274341  0.33893364  0.66798147     1.39100
O1008       O  0.51753785  0.29651658  0.68816832    -1.24000
O1009       O  0.25158002  0.94718982  0.66884218    -0.86200
O1010       O  0.20486974  0.99510251  0.63840678    -0.83300
C1011       C  0.19330661  0.97193349  0.61887761     0.97300
O1012       O  0.17153636  0.94615414  0.62705451    -0.83300
O1013       O  0.13030224  0.89755053  0.66198554    -0.85900
C1014       C  0.14990647  0.86920476  0.66701101     1.01800
O1015       O  0.17863338  0.87175927  0.68310664    -0.78700
O1016       O  0.24096848  0.90627639  0.70505676    -0.78900
C1017       C  0.25933481  0.91656733  0.68200385     1.01700
O1018       O  0.23479707  0.98459615  0.72471231    -0.86200
O1019       O  0.17691840  0.02539349  0.69669440    -0.83300
C1020       C  0.14773367  0.03015739  0.68111756     0.97300
O1021       O  0.14195365  0.00719215  0.66015546    -0.83300
O1022       O  0.10683408  0.95628305  0.70004454    -0.85900
C1023       C  0.10573898  0.93185892  0.72069604     1.01700
O1024       O  0.13345401  0.91122328  0.72621231    -0.78700
O1025       O  0.19588310  0.94789025  0.74854033    -0.78900
C1026       C  0.22167774  0.97190740  0.74910484     1.01700
Cr1027     Cr  0.21438783  0.98552712  0.68274766     1.93700
Cr1028     Cr  0.14076695  0.95177195  0.66422372     1.93200
Cr1029     Cr  0.18679982  0.91263867  0.71370899     1.39100
O1030       O  0.18065668  0.94958505  0.68726215    -1.24000
O1031       O  0.24863356  0.99119275  0.88782962    -0.86200
O1032       O  0.21120791  0.95349755  0.93190065    -0.83300
C1033       C  0.21425110  0.92056445  0.92099101     0.97300
O1034       O  0.24549305  0.90493676  0.92170907    -0.83300
O1035       O  0.32074709  0.89209874  0.92932174    -0.85900
C1036       C  0.33703249  0.89749332  0.90436450     1.01800
O1037       O  0.33539755  0.92908083  0.89202402    -0.78700
O1038       O  0.30862168  0.99985290  0.88021443    -0.78900
C1039       C  0.27555304  0.99719925  0.87007171     1.01700
O1040       O  0.27974809  0.04309639  0.92988580    -0.86200
O1041       O  0.24929217  0.99977154  0.97724760    -0.83300
C1042       C  0.24105081  0.97154810  0.99311186     0.97300
O1043       O  0.24230426  0.93926209  0.98131642    -0.83300
O1044       O  0.31638755  0.93650691  0.98318301    -0.85900
C1045       C  0.35023585  0.93854094  0.97696941     1.01700
O1046       O  0.36113601  0.95088571  0.95134823    -0.78700
O1047       O  0.33484552  0.02189832  0.94088405    -0.78900
C1048       C  0.31304982  0.04894293  0.93752461     1.01700
Cr1049     Cr  0.24994221  0.99492969  0.93207109     1.93700
Cr1050     Cr  0.28158379  0.92109695  0.95224795     1.93200
Cr1051     Cr  0.33165622  0.97513357  0.91731815     1.39100
O1052       O  0.28798363  0.96373717  0.93336391    -1.24000
O1053       O  0.45300046  0.76497043  0.86193239    -0.86200
O1054       O  0.48752115  0.72509068  0.90692609    -0.83300
C1055       C  0.49101860  0.69769751  0.92470065     0.97300
O1056       O  0.49036597  0.66437767  0.91454666    -0.83300
O1057       O  0.41866444  0.64443827  0.90051546    -0.85900
C1058       C  0.38811529  0.64268227  0.88711554     1.01800
O1059       O  0.38516863  0.65704905  0.86114449    -0.78700
O1060       O  0.40071661  0.73394111  0.86752234    -0.78900
C1061       C  0.41852916  0.76439853  0.86860466     1.01700
O1062       O  0.49803576  0.72604789  0.81660924    -0.86200
O1063       O  0.53755944  0.69010286  0.86395290    -0.83300
C1064       C  0.54133160  0.65546413  0.85810840     0.97300
O1065       O  0.51333917  0.63472693  0.85622578    -0.83300
O1066       O  0.44313148  0.61255058  0.84317509    -0.85900
C1067       C  0.43503608  0.62146865  0.81615377     1.01700
O1068       O  0.43133387  0.65550480  0.80909188    -0.78700
O1069       O  0.43847070  0.73301817  0.81093994    -0.78900
C1070       C  0.47094788  0.73591861  0.80026619     1.01700
Cr1071     Cr  0.49166032  0.72352199  0.86205262     1.93700
Cr1072     Cr  0.46592228  0.64278680  0.87724196     1.93200
Cr1073     Cr  0.41723718  0.69430351  0.83898684     1.39100
O1074       O  0.45847666  0.68674437  0.85963163    -1.24000
O1075       O  0.48875358  0.76146143  0.65699335    -0.86200
O1076       O  0.45723578  0.72023313  0.61231894    -0.83300
C1077       C  0.42184640  0.72091860  0.61479112     0.97300
O1078       O  0.40448901  0.75063055  0.60913935    -0.83300
O1079       O  0.38953435  0.82580852  0.60412354    -0.85900
C1080       C  0.38830591  0.83798265  0.63115985     1.01800
O1081       O  0.41765678  0.83765141  0.64632435    -0.78700
O1082       O  0.48807135  0.82218138  0.66531081    -0.78900
C1083       C  0.48749590  0.78870039  0.67517731     1.01700
O1084       O  0.54053274  0.79678923  0.61450042    -0.86200
O1085       O  0.50714462  0.75679832  0.56818584    -0.83300
C1086       C  0.48245687  0.74631108  0.54991821     0.97300
O1087       O  0.44894157  0.75074292  0.55715442    -0.83300
O1088       O  0.44811926  0.82645529  0.55682437    -0.85900
C1089       C  0.44030798  0.85954487  0.56305302     1.01700
O1090       O  0.44335123  0.87071781  0.59034854    -0.78700
O1091       O  0.51490692  0.85182231  0.60689893    -0.78900
C1092       C  0.54319463  0.83116726  0.60731470     1.01700
Cr1093     Cr  0.49621758  0.76160897  0.61274942     1.93700
Cr1094     Cr  0.42553765  0.78945048  0.58362400     1.93200
Cr1095     Cr  0.46636986  0.84208523  0.62588863     1.39100
O1096       O  0.46262717  0.79726162  0.60830991    -1.24000
O1097       O  0.99105881  0.71743498  0.65680577    -0.86200
O1098       O  0.03117033  0.75357393  0.61312325    -0.83300
C1099       C  0.06539188  0.74690680  0.61849082     0.97300
O1100       O  0.07984987  0.71584942  0.61151568    -0.83300
O1101       O  0.08612871  0.64005349  0.60060273    -0.85900
C1102       C  0.08766899  0.63145343  0.62806538     1.01800
O1103       O  0.05921996  0.63589410  0.64434926    -0.78700
O1104       O  0.99038944  0.65693717  0.66524663    -0.78900
C1105       C  0.98864035  0.69032331  0.67500361     1.01700
O1106       O  0.93940252  0.68767783  0.61322050    -0.86200
O1107       O  0.97968980  0.72248505  0.56645694    -0.83300
C1108       C  0.00626563  0.73055256  0.54877180     0.97300
O1109       O  0.03846031  0.72420234  0.55805014    -0.83300
O1110       O  0.03466422  0.64499068  0.55347297    -0.85900
C1111       C  0.03135962  0.61114560  0.56173904     1.01700
O1112       O  0.02566066  0.60342253  0.58959813    -0.78700
O1113       O  0.95858888  0.62906911  0.60994855    -0.80500
C1114       C  0.93283813  0.65289297  0.61036707     1.01700
Cr1115     Cr  0.98747001  0.71722317  0.61171611     1.93700
Cr1116     Cr  0.05627596  0.68116653  0.58274907     1.93200
Cr1117     Cr  0.00903408  0.63474513  0.62580138     1.39100
O1118       O  0.01683661  0.67762070  0.60690071    -1.24000
O1119       O  0.01894259  0.71808715  0.86182773    -0.86200
O1120       O  0.98618046  0.75912792  0.90661978    -0.83300
C1121       C  0.98787376  0.78642789  0.92469374     0.97300
O1122       O  0.98813668  0.81981182  0.91490090    -0.83300
O1123       O  0.05567688  0.83843076  0.89266883    -0.85900
C1124       C  0.08431175  0.84033988  0.87654168     1.01800
O1125       O  0.08408088  0.82675551  0.85008516    -0.78700
O1126       O  0.07078396  0.75086401  0.85985475    -0.78900
C1127       C  0.05393372  0.72076723  0.86569024     1.01700
O1128       O  0.96844435  0.75253767  0.81789402    -0.86200
O1129       O  0.93249839  0.79140662  0.86439448    -0.83300
C1130       C  0.92870558  0.82608355  0.85881342     0.97300
O1131       O  0.95627396  0.84751253  0.85877678    -0.83300
O1132       O  0.02347345  0.86878910  0.83687830    -0.85900
C1133       C  0.02725436  0.85855649  0.80925932     1.01700
O1134       O  0.03090057  0.82429681  0.80295134    -0.78700
O1135       O  0.02711005  0.74727359  0.80643899    -0.78900
C1136       C  0.99349771  0.74189536  0.79963630     1.01700
Cr1137     Cr  0.97884469  0.75843988  0.86222657     1.93700
Cr1138     Cr  0.00609119  0.83987544  0.87434302     1.93200
Cr1139     Cr  0.04997636  0.78788411  0.83196653     1.39100
O1140       O  0.01122085  0.79548142  0.85636856    -1.24000
O1141       O  0.21938688  0.52452474  0.67694295    -0.86200
O1142       O  0.25680352  0.48895062  0.63228727    -0.83300
C1143       C  0.28316532  0.48905881  0.61330877     0.97300
O1144       O  0.31675765  0.49050599  0.62206572    -0.83300
O1145       O  0.33710871  0.55979995  0.64041418    -0.85900
C1146       C  0.33939165  0.58982299  0.65488117     1.01800
O1147       O  0.32675015  0.59144445  0.68148862    -0.78700
O1148       O  0.25125086  0.57689662  0.67310120    -0.78900
C1149       C  0.22128817  0.55898986  0.67004660     1.01700
O1150       O  0.25667923  0.47821227  0.72229522    -0.86200
O1151       O  0.29057764  0.43827969  0.67461574    -0.83300
C1152       C  0.32495564  0.43405984  0.67897999     0.97300
O1153       O  0.34673330  0.46154403  0.67878187    -0.83300
O1154       O  0.36912808  0.53190641  0.69652486    -0.85900
C1155       C  0.35994429  0.54035557  0.72377341     1.01700
O1156       O  0.32610578  0.54278621  0.73119967    -0.78700
O1157       O  0.24898286  0.53796770  0.72834627    -0.78900
C1158       C  0.24697898  0.50544616  0.73900418     1.01700
Cr1159     Cr  0.25895525  0.48483741  0.67693511     1.93700
Cr1160     Cr  0.33902211  0.51109185  0.66096384     1.93200
Cr1161     Cr  0.28878421  0.55886827  0.70166745     1.39100
O1162       O  0.29583195  0.51782391  0.67964136    -1.24000
O1163       O  0.20482069  0.47609966  0.88169685    -0.86200
O1164       O  0.25255333  0.52402894  0.91252692    -0.83300
C1165       C  0.25911249  0.55556614  0.92468116     0.97300
O1166       O  0.23705917  0.56936448  0.94403035    -0.83300
O1167       O  0.17060388  0.59557227  0.92235947    -0.85900
C1168       C  0.13910551  0.59569268  0.91023997     1.01800
O1169       O  0.12060400  0.56597192  0.90855417    -0.78700
O1170       O  0.16157254  0.51760108  0.87131501    -0.78900
C1171       C  0.18813368  0.49671112  0.86274167     1.01700
O1172       O  0.18286648  0.44369365  0.94044005    -0.86200
O1173       O  0.23494912  0.48819349  0.96856172    -0.83300
C1174       C  0.22367620  0.50487191  0.99217693     0.97300
O1175       O  0.19881196  0.52968714  0.99081476    -0.83300
O1176       O  0.13262992  0.55791487  0.97087663    -0.85900
C1177       C  0.10684419  0.53394791  0.97021028     1.01700
O1178       O  0.10637029  0.50830070  0.95016702    -0.78700
O1179       O  0.13834413  0.45648053  0.90890642    -0.78900
C1180       C  0.15337894  0.43427439  0.92722265     1.01700
Cr1181     Cr  0.21537709  0.48574065  0.92615090     1.93700
Cr1182     Cr  0.18429594  0.55936596  0.95477941     1.93200
Cr1183     Cr  0.13574536  0.51245933  0.91137785     1.39100
O1184       O  0.17871811  0.51929676  0.93098292    -1.24000
C1185       C  0.22733333  0.52630581  0.82242764    -0.02700
C1186       C  0.20200237  0.49816544  0.83070433     0.07000
C1187       C  0.19129711  0.47172185  0.80858019    -0.02800
C1188       C  0.20735366  0.47236265  0.77905570    -0.02800
C1189       C  0.23256523  0.50112040  0.77077838     0.07100
C1190       C  0.24163045  0.52866759  0.79278737    -0.03000
Br1191     Br  0.27366999  0.57083802  0.78346424    -0.01600
Br1192     Br  0.24288016  0.56247855  0.85173407    -0.01600
Br1193     Br  0.19278452  0.43505936  0.74975063    -0.01600
Br1194     Br  0.15252948  0.43657612  0.81801300    -0.01600
C1195       C  0.28363919  0.51954901  0.56162587    -0.02700
C1196       C  0.27347663  0.48901964  0.58029901     0.07000
C1197       C  0.24915240  0.46161166  0.56836195    -0.02800
C1198       C  0.23428440  0.46552278  0.53892369    -0.02800
C1199       C  0.24199884  0.49777230  0.52168059     0.07100
C1200       C  0.26743294  0.52421724  0.53288532    -0.03000
Br1201     Br  0.28012988  0.56727016  0.00860182    -0.01600
Br1202     Br  0.31828930  0.55666290  0.57527042    -0.01600
Br1203     Br  0.20294425  0.42700156  0.52241747    -0.01600
Br1204     Br  0.23606663  0.41846845  0.59224205    -0.01600
C1205       C  0.06733077  0.67160745  0.90455628    -0.02700
C1206       C  0.07590952  0.68837205  0.87651087     0.07000
C1207       C  0.10762398  0.67592741  0.86012409    -0.02800
C1208       C  0.12873519  0.64551480  0.87093580    -0.02800
C1209       C  0.12143129  0.63078548  0.89990566     0.07100
C1210       C  0.09217878  0.64595358  0.91734722    -0.03000
Br1211     Br  0.08840043  0.63474428  0.95979971    -0.01600
Br1212     Br  0.02103351  0.68158081  0.92522799    -0.01600
Br1213     Br  0.16644498  0.62323443  0.84562110    -0.01600
Br1214     Br  0.12121153  0.69879742  0.82204716    -0.01600
C1215       C  0.15720185  0.62441517  0.62764035    -0.02700
C1216       C  0.12211232  0.61439563  0.64000425     0.07000
C1217       C  0.12020908  0.58598614  0.66215363    -0.02800
C1218       C  0.15293328  0.57053426  0.67378154    -0.02800
C1219       C  0.18749302  0.57858529  0.65996339     0.07100
C1220       C  0.18926947  0.60472382  0.63613074    -0.03000
Br1221     Br  0.23458136  0.61127851  0.61292373    -0.01600
Br1222     Br  0.16254446  0.66555091  0.59948793    -0.01600
Br1223     Br  0.14986179  0.53985446  0.70975577    -0.01600
Br1224     Br  0.07342073  0.56371830  0.67390390    -0.01600
C1225       C  0.02739278  0.58084802  0.50971665    -0.02700
C1226       C  0.04073385  0.58049937  0.53976879     0.07000
C1227       C  0.06846822  0.55412160  0.54736271    -0.02800
C1228       C  0.08797307  0.53494851  0.52434270    -0.02800
C1229       C  0.07755537  0.53841792  0.99382780     0.07100
C1230       C  0.04485222  0.55844399  0.98708784    -0.03000
Br1231     Br  0.02670867  0.55870571  0.94608513    -0.01600
Br1232     Br  0.98630564  0.61283791  0.49942354    -0.01600
Br1233     Br  0.13259753  0.50817786  0.53464726    -0.01600
Br1234     Br  0.08325613  0.54618516  0.58878264    -0.01600
C1235       C  0.95837569  0.72523878  0.71909841    -0.02700
C1236       C  0.98425717  0.69820269  0.70842154     0.07000
C1237       C  0.00685835  0.68001734  0.72997645    -0.02800
C1238       C  0.00683284  0.69193802  0.76056052    -0.02800
C1239       C  0.98494842  0.72269702  0.77012763     0.07100
C1240       C  0.95820210  0.73683448  0.74989259    -0.03000
Br1241     Br  0.92079188  0.77142446  0.76420131    -0.01600
Br1242     Br  0.92222452  0.74581605  0.69176776    -0.01600
Br1243     Br  0.03468961  0.66406012  0.79013310    -0.01600
Br1244     Br  0.03997457  0.64023678  0.71797929    -0.01600
C1245       C  0.02751377  0.76469020  0.96733466    -0.02700
C1246       C  0.99284038  0.77799759  0.95763916     0.07000
C1247       C  0.96297527  0.77852868  0.97841660    -0.02800
C1248       C  0.96703847  0.76407536  0.50817937    -0.02800
C1249       C  0.00129189  0.74785552  0.51753161     0.07100
C1250       C  0.03175600  0.74884020  0.99640776    -0.03000
Br1251     Br  0.07990714  0.72705508  0.50488430    -0.01600
Br1252     Br  0.06985567  0.76837711  0.94014240    -0.01600
Br1253     Br  0.92515668  0.76779581  0.53561765    -0.01600
Br1254     Br  0.91635855  0.79936728  0.96570929    -0.01600
C1255       C  0.41576874  0.65026595  0.62110051    -0.02700
C1256       C  0.40010358  0.68675793  0.62375439     0.07000
C1257       C  0.36273833  0.69021068  0.63470558    -0.02800
C1258       C  0.34321014  0.65847205  0.64482376    -0.02800
C1259       C  0.35881883  0.62255357  0.64171956     0.07100
C1260       C  0.39439158  0.61842931  0.62837729    -0.03000
Br1261     Br  0.41532081  0.56902747  0.62143822    -0.01600
Br1262     Br  0.46676664  0.64203149  0.60829202    -0.01600
Br1263     Br  0.29415929  0.66439421  0.66260099    -0.01600
Br1264     Br  0.33652528  0.73776025  0.63734201    -0.01600
C1265       C  0.36026463  0.58485318  0.91154566    -0.02700
C1266       C  0.35601227  0.62179952  0.90039735     0.07000
C1267       C  0.32006981  0.63729484  0.89893088    -0.02800
C1268       C  0.28878654  0.61593791  0.90734450    -0.02800
C1269       C  0.29265538  0.57796056  0.91605711     0.07100
C1270       C  0.32868708  0.56257505  0.91799478    -0.03000
Br1271     Br  0.33500219  0.51098570  0.92981752    -0.01600
Br1272     Br  0.40908973  0.56416335  0.91827504    -0.01600
Br1273     Br  0.24053022  0.63914323  0.90510116    -0.01600
Br1274     Br  0.31358743  0.68880285  0.88660844    -0.01600
C1275       C  0.38361894  0.54235469  0.77751935    -0.02700
C1276       C  0.38808433  0.55231368  0.74668601     0.07000
C1277       C  0.41549275  0.57922849  0.73917347    -0.02800
C1278       C  0.43417594  0.59914601  0.76210049    -0.02800
C1279       C  0.42599593  0.59239555  0.79290391     0.07100
C1280       C  0.40356095  0.56124719  0.80031254    -0.03000
Br1281     Br  0.39866491  0.54435426  0.84149806    -0.01600
Br1282     Br  0.34851435  0.50432370  0.78944097    -0.01600
Br1283     Br  0.47131887  0.63584250  0.75110179    -0.01600
Br1284     Br  0.42527160  0.59283001  0.69789161    -0.01600
C1285       C  0.50740117  0.79118305  0.73080161    -0.02700
C1286       C  0.48236818  0.77965066  0.70816967     0.07000
C1287       C  0.45262317  0.75603823  0.71657874    -0.02800
C1288       C  0.44873470  0.74255817  0.74635846    -0.02800
C1289       C  0.47557776  0.75133991  0.76868695     0.07100
C1290       C  0.50449619  0.77663930  0.76074748    -0.03000
Br1291     Br  0.53898561  0.79344017  0.79106964    -0.01600
Br1292     Br  0.54545687  0.82696707  0.72077109    -0.01600
Br1293     Br  0.40575368  0.71157525  0.75532523    -0.01600
Br1294     Br  0.41545084  0.74282310  0.68735053    -0.01600
C1295       C  0.47209148  0.68578204  0.97912521    -0.02700
C1296       C  0.49473740  0.70505713  0.95801342     0.07000
C1297       C  0.51836200  0.73374165  0.96885633    -0.02800
C1298       C  0.51756393  0.74437420  0.49980993    -0.02800
C1299       C  0.49107081  0.72867293  0.51983104     0.07100
C1300       C  0.46903747  0.69849867  0.50937157    -0.03000
Br1301     Br  0.43360543  0.67432800  0.53607085    -0.01600
Br1302     Br  0.44349934  0.64267456  0.96712544    -0.01600
Br1303     Br  0.55209662  0.78142577  0.51412557    -0.01600
Br1304     Br  0.55216476  0.75873360  0.94145152    -0.01600
C1305       C  0.18265388  0.86050272  0.90273476    -0.02700
C1306       C  0.18105254  0.89980766  0.90902398     0.07000
C1307       C  0.14681545  0.91872734  0.90433941    -0.02800
C1308       C  0.11480362  0.89842004  0.89641208    -0.02800
C1309       C  0.11740153  0.86037561  0.88805232     0.07100
C1310       C  0.15153444  0.84172368  0.89073899    -0.03000
Br1311     Br  0.15477858  0.78932554  0.87982059    -0.01600
Br1312     Br  0.22582508  0.83015805  0.91155291    -0.01600
Br1313     Br  0.06707071  0.92297911  0.89805287    -0.01600
Br1314     Br  0.14255517  0.97282306  0.90624276    -0.01600
C1315       C  0.39569080  0.85972815  0.90320632    -0.02700
C1316       C  0.36008116  0.86684709  0.89135058     0.07000
C1317       C  0.34524532  0.84208582  0.86980213    -0.02800
C1318       C  0.36448116  0.80886345  0.86196765    -0.02800
C1319       C  0.39874491  0.80005293  0.87592631     0.07100
C1320       C  0.41466998  0.82631909  0.89598272    -0.03000
Br1321     Br  0.46169890  0.81616117  0.91514603    -0.01600
Br1322     Br  0.41966588  0.89636252  0.92845755    -0.01600
Br1323     Br  0.34446846  0.77670696  0.83089313    -0.01600
Br1324     Br  0.29893553  0.85452101  0.85062079    -0.01600
C1325       C  0.39061996  0.86182739  0.52452453    -0.02700
C1326       C  0.41958313  0.88065380  0.53997441     0.07000
C1327       C  0.42660942  0.91873138  0.53383882    -0.02800
C1328       C  0.40488609  0.93793403  0.51234812    -0.02800
C1329       C  0.37544404  0.91938022  0.99792736     0.07100
C1330       C  0.36769066  0.88155381  0.50489518    -0.03000
Br1331     Br  0.32393577  0.85616672  0.98964439    -0.01600
Br1332     Br  0.37894453  0.80919415  0.53132406    -0.01600
Br1333     Br  0.41322406  0.99025693  0.00459784    -0.01600
Br1334     Br  0.46637805  0.94411555  0.55420660    -0.01600
C1335       C  0.09768544  0.77768507  0.66238177    -0.02700
C1336       C  0.08979397  0.77635608  0.63110298     0.07000
C1337       C  0.10765204  0.80153061  0.61139103    -0.02800
C1338       C  0.13083533  0.82974685  0.62304357    -0.02800
C1339       C  0.13649587  0.83307405  0.65455600     0.07100
C1340       C  0.12102370  0.80596316  0.67409860    -0.03000
Br1341     Br  0.12969677  0.80911563  0.71712814    -0.01600
Br1342     Br  0.07566000  0.74147432  0.68928970    -0.01600
Br1343     Br  0.15500937  0.86391847  0.59565711    -0.01600
Br1344     Br  0.10009783  0.79739269  0.56829584    -0.01600
C1345       C  0.04548621  0.92291506  0.78914203    -0.02700
C1346       C  0.03223131  0.88607913  0.78389291     0.07000
C1347       C  0.03073757  0.87333520  0.75337488    -0.02800
C1348       C  0.05057648  0.89241922  0.73062272    -0.02800
C1349       C  0.07140658  0.92430961  0.73803844     0.07100
C1350       C  0.06556821  0.94163266  0.76618661    -0.03000
Br1351     Br  0.08627477  0.99041518  0.77299094    -0.01600
Br1352     Br  0.03697221  0.94842583  0.82693413    -0.01600
Br1353     Br  0.05078669  0.87414798  0.68946804    -0.01600
Br1354     Br  0.00241785  0.82960211  0.74208879    -0.01600
C1355       C  0.25400850  0.98291769  0.54821100    -0.02700
C1356       C  0.22837773  0.97542445  0.52497077     0.07000
C1357       C  0.19109745  0.96791270  0.53253587    -0.02800
C1358       C  0.17927159  0.96824367  0.56305429    -0.02800
C1359       C  0.20495958  0.97531794  0.58651421     0.07100
C1360       C  0.24232255  0.98372104  0.57876983    -0.03000
Br1361     Br  0.27887234  0.99399257  0.60966922    -0.01600
Br1362     Br  0.30605179  0.98822841  0.53880282    -0.01600
Br1363     Br  0.12722786  0.96084482  0.57212164    -0.01600
Br1364     Br  0.15639706  0.95618557  0.00079738    -0.01600
C1365       C  0.27521289  0.97459278  0.78564848    -0.02700
C1366       C  0.23828464  0.98427179  0.77842696     0.07000
C1367       C  0.21837611  0.00732478  0.79876017    -0.02800
C1368       C  0.23285142  0.01548325  0.82770345    -0.02800
C1369       C  0.26698325  0.99959661  0.83700496     0.07100
C1370       C  0.28921211  0.98112433  0.81502517    -0.03000
Br1371     Br  0.33822640  0.96319549  0.82478431    -0.01600
Br1372     Br  0.30736878  0.95376571  0.75499727    -0.01600
Br1373     Br  0.20690861  0.05034811  0.85395259    -0.01600
Br1374     Br  0.17308554  0.03057990  0.78580281    -0.01600
C1375       C  0.31453628  0.87227900  0.68868651    -0.02700
C1376       C  0.28990907  0.89212867  0.66980347     0.07000
C1377       C  0.29356920  0.88715305  0.63829433    -0.02800
C1378       C  0.32554334  0.87044970  0.62559839    -0.02800
C1379       C  0.35322831  0.85465679  0.64444239     0.07100
C1380       C  0.34674384  0.85514418  0.67632243    -0.03000
Br1381     Br  0.38136342  0.83293201  0.70423741    -0.01600
Br1382     Br  0.30250883  0.86372520  0.73082456    -0.01600
Br1383     Br  0.33092736  0.87318786  0.58223941    -0.01600
Br1384     Br  0.25125362  0.89586973  0.61279378    -0.01600
C1385       C  0.37343668  0.34252803  0.66334968    -0.02700
C1386       C  0.39898539  0.34356394  0.68742566     0.07000
C1387       C  0.39225073  0.36793419  0.71210914    -0.02800
C1388       C  0.36267721  0.39334673  0.71129485    -0.02800
C1389       C  0.34144379  0.39693377  0.68500229     0.07100
C1390       C  0.34497418  0.36974679  0.66189422    -0.03000
Br1391     Br  0.31361623  0.37210645  0.62698042    -0.01600
Br1392     Br  0.38049282  0.30752711  0.63040155    -0.01600
Br1393     Br  0.35270491  0.42572646  0.74528563    -0.01600
Br1394     Br  0.42581301  0.37020025  0.74565973    -0.01600
C1395       C  0.36433355  0.13488893  0.91286387    -0.02700
C1396       C  0.38741233  0.13999297  0.93831535     0.07000
C1397       C  0.37719358  0.12285465  0.96586444    -0.02800
C1398       C  0.34790976  0.09681789  0.96685190    -0.02800
C1399       C  0.32891653  0.08715915  0.94024982     0.07100
C1400       C  0.33481291  0.10877648  0.91398047    -0.03000
Br1401     Br  0.30452047  0.10021735  0.87882086    -0.01600
Br1402     Br  0.37560919  0.16002589  0.87542570    -0.01600
Br1403     Br  0.33425143  0.07325314  0.00442445    -0.01600
Br1404     Br  0.40440301  0.13358801  0.00203890    -0.01600
C1405       C  0.47915057  0.23414050  0.57822524    -0.02700
C1406       C  0.48550391  0.27219368  0.58663140     0.07000
C1407       C  0.48763387  0.29882976  0.56265369    -0.02800
C1408       C  0.48724787  0.28701011  0.53177108    -0.02800
C1409       C  0.48648997  0.24865548  0.52403170     0.07100
C1410       C  0.48176804  0.22250977  0.54760510    -0.03000
Br1411     Br  0.48046314  0.16981722  0.03854933    -0.01600
Br1412     Br  0.46352076  0.19697499  0.60762615    -0.01600
Br1413     Br  0.48655713  0.32337149  0.49960094    -0.01600
Br1414     Br  0.49041135  0.35181780  0.57090130    -0.01600
C1415       C  0.45414262  0.22818365  0.82361438    -0.02700
C1416       C  0.47736245  0.19930725  0.83443561     0.07000
C1417       C  0.50268051  0.18205812  0.81407865    -0.02800
C1418       C  0.50757376  0.19638977  0.78453097    -0.02800
C1419       C  0.48685313  0.22775675  0.77480150     0.07100
C1420       C  0.45846930  0.24190532  0.79386475    -0.03000
Br1421     Br  0.42649194  0.28144952  0.78020010    -0.01600
Br1422     Br  0.41661878  0.24981596  0.84987404    -0.01600
Br1423     Br  0.54262094  0.17243037  0.75724021    -0.01600
Br1424     Br  0.53289094  0.14049699  0.82674811    -0.01600
C1425       C  0.86644028  0.90128811  0.83022885    -0.02700
C1426       C  0.83956066  0.90339022  0.85369793     0.07000
C1427       C  0.83521914  0.87209997  0.87305535    -0.02800
C1428       C  0.86170423  0.84254610  0.87225914    -0.02800
C1429       C  0.89232691  0.84430259  0.85211242     0.07100
C1430       C  0.89206456  0.87166071  0.82915756    -0.03000
Br1431     Br  0.92859022  0.86968893  0.79686972    -0.01600
Br1432     Br  0.86991859  0.94007239  0.80001559    -0.01600
Br1433     Br  0.85672820  0.80061580  0.89920083    -0.01600
Br1434     Br  0.79486336  0.87049640  0.90184840    -0.01600
C1435       C  0.67022598  0.11969727  0.86718555    -0.02700
C1436       C  0.67611172  0.08084404  0.87275584     0.07000
C1437       C  0.64921338  0.06138723  0.89047887    -0.02800
C1438       C  0.61767026  0.08030331  0.90217168    -0.02800
C1439       C  0.61184401  0.11854969  0.89600166     0.07100
C1440       C  0.63818072  0.13805303  0.87856419    -0.03000
Br1441     Br  0.63023111  0.19056562  0.87079473    -0.01600
Br1442     Br  0.70519475  0.14911413  0.84385706    -0.01600
Br1443     Br  0.58300594  0.05385486  0.92787163    -0.01600
Br1444     Br  0.65578735  0.00929778  0.90125553    -0.01600
C1445       C  0.60895158  0.84806508  0.62149931    -0.02700
C1446       C  0.57964678  0.84926527  0.60043826     0.07000
C1447       C  0.58296846  0.87341596  0.57517766    -0.02800
C1448       C  0.61285099  0.89875531  0.57312691    -0.02800
C1449       C  0.63774203  0.90261302  0.59738893     0.07100
C1450       C  0.63752762  0.87520473  0.62033589    -0.03000
Br1451     Br  0.67409647  0.87691079  0.65185054    -0.01600
Br1452     Br  0.60813984  0.81203260  0.65382812    -0.01600
Br1453     Br  0.62009640  0.92860065  0.53720189    -0.01600
Br1454     Br  0.54556001  0.87374676  0.54409691    -0.01600
C1455       C  0.62129161  0.18798056  0.66913765    -0.02700
C1456       C  0.58203159  0.18616515  0.67431521     0.07000
C1457       C  0.56400247  0.15079830  0.67077517    -0.02800
C1458       C  0.58440936  0.11898444  0.66167262    -0.02800
C1459       C  0.62259182  0.12175044  0.65540392     0.07100
C1460       C  0.64106092  0.15591173  0.65963368    -0.03000
Br1461     Br  0.69415223  0.15838902  0.65255511    -0.01600
Br1462     Br  0.64996869  0.23358548  0.67368810    -0.01600
Br1463     Br  0.55935647  0.07157651  0.65569817    -0.01600
Br1464     Br  0.51106821  0.14378689  0.67694419    -0.01600
C1465       C  0.56623156  0.05006948  0.53389325    -0.02700
C1466       C  0.59751272  0.06843308  0.54582189     0.07000
C1467       C  0.60667759  0.10478884  0.53606584    -0.02800
C1468       C  0.58635782  0.12174197  0.51321771    -0.02800
C1469       C  0.55503460  0.10344583  0.00082829     0.07100
C1470       C  0.54492100  0.06755246  0.51125441    -0.03000
Br1471     Br  0.50180167  0.04303370  0.49509974    -0.01600
Br1472     Br  0.55266332  0.00139992  0.54864924    -0.01600
Br1473     Br  0.60406243  0.17000883  0.99866599    -0.01600
Br1474     Br  0.64599450  0.13338519  0.55500784    -0.01600
C1475       C  0.73687757  0.03955769  0.49690257    -0.02700
C1476       C  0.74608523  0.01122236  0.51816136     0.07000
C1477       C  0.76666469  0.97977120  0.00774443    -0.02800
C1478       C  0.77727812  0.97662802  0.97687158    -0.02800
C1479       C  0.76630058  0.00388065  0.95575390     0.07100
C1480       C  0.74602156  0.03528957  0.96599244    -0.03000
Br1481     Br  0.73146425  0.07361405  0.93759302    -0.01600
Br1482     Br  0.71127708  0.08487785  0.50884323    -0.01600
Br1483     Br  0.80633489  0.93444824  0.96333357    -0.01600
Br1484     Br  0.78241513  0.94151304  0.03561202    -0.01600
C1485       C  0.74092772  0.96225335  0.74809651    -0.02700
C1486       C  0.72463793  0.98910022  0.76770973     0.07000
C1487       C  0.69230696  0.00795025  0.75813923    -0.02800
C1488       C  0.67957494  0.00403827  0.72813245    -0.02800
C1489       C  0.69950442  0.98169344  0.70699990     0.07100
C1490       C  0.72898657  0.95920676  0.71771223    -0.03000
Br1491     Br  0.75294988  0.92373808  0.69081135    -0.01600
Br1492     Br  0.77980194  0.92982751  0.76233286    -0.01600
Br1493     Br  0.63577222  0.03119818  0.71643317    -0.01600
Br1494     Br  0.66438880  0.03838625  0.78664654    -0.01600
C1495       C  0.10535243  0.34150548  0.91315198    -0.02700
C1496       C  0.08143698  0.34002315  0.93863116     0.07000
C1497       C  0.08813809  0.36410428  0.96320890    -0.02800
C1498       C  0.11292416  0.39417634  0.96007731    -0.02800
C1499       C  0.13461731  0.39802610  0.93358679     0.07100
C1500       C  0.13262835  0.36990825  0.91110301    -0.03000
Br1501     Br  0.16617788  0.37142742  0.87702709    -0.01600
Br1502     Br  0.09833341  0.30744361  0.87977018    -0.01600
Br1503     Br  0.11201240  0.43294535  0.99006988    -0.01600
Br1504     Br  0.06099577  0.35714822  0.00049922    -0.01600
C1505       C  0.86659689  0.15820236  0.86917393    -0.02700
C1506       C  0.84815074  0.13327925  0.88945857     0.07000
C1507       C  0.85158160  0.13979883  0.92108516    -0.02800
C1508       C  0.87549895  0.16791767  0.93209914    -0.02800
C1509       C  0.89423242  0.19180270  0.91191189     0.07100
C1510       C  0.88903223  0.18743753  0.88052531    -0.03000
Br1511     Br  0.91334341  0.22154025  0.85295945    -0.01600
Br1512     Br  0.86255047  0.15328003  0.82559849    -0.01600
Br1513     Br  0.88270107  0.17401222  0.97515801    -0.01600
Br1514     Br  0.82111744  0.11315811  0.94994528    -0.01600
C1515       C  0.12791212  0.09712199  0.69738640    -0.02700
C1516       C  0.11937376  0.06120930  0.68534169     0.07000
C1517       C  0.08251773  0.05499298  0.67483193    -0.02800
C1518       C  0.05600793  0.08390637  0.67492878    -0.02800
C1519       C  0.06484602  0.12051063  0.68574579     0.07100
C1520       C  0.10073456  0.12633817  0.69795100    -0.03000
Br1521     Br  0.11374069  0.17478801  0.71406017    -0.01600
Br1522     Br  0.17760714  0.10779662  0.71086341    -0.01600
Br1523     Br  0.00713007  0.07087927  0.65914575    -0.01600
Br1524     Br  0.06593358  0.00671527  0.65898886    -0.01600
C1525       C  0.81493923  0.10101792  0.61561940    -0.02700
C1526       C  0.78909325  0.08586670  0.63620161     0.07000
C1527       C  0.78967549  0.09688928  0.66693494    -0.02800
C1528       C  0.81769288  0.12109030  0.67739051    -0.02800
C1529       C  0.84464920  0.13486215  0.65697782     0.07100
C1530       C  0.84267039  0.12535778  0.62597812    -0.03000
Br1531     Br  0.87807851  0.14550776  0.59746004    -0.01600
Br1532     Br  0.81159788  0.08942227  0.57294703    -0.01600
Br1533     Br  0.82064787  0.13336712  0.71993615    -0.01600
Br1534     Br  0.75249530  0.07820737  0.69475798    -0.01600
C1535       C  0.91909566  0.06893066  0.79826593    -0.02700
C1536       C  0.88625260  0.04968228  0.78964013     0.07000
C1537       C  0.88138619  0.04097846  0.75850645    -0.02800
C1538       C  0.90569082  0.05596133  0.73647640    -0.02800
C1539       C  0.93383143  0.08099838  0.74500231     0.07100
C1540       C  0.94220073  0.08497757  0.77585404    -0.03000
Br1541     Br  0.98336281  0.11611093  0.78707970    -0.01600
Br1542     Br  0.93162454  0.07741998  0.84028144    -0.01600
Br1543     Br  0.89836112  0.04554611  0.69403983    -0.01600
Br1544     Br  0.84075775  0.01001956  0.74513478    -0.01600
C1545       C  0.94399022  0.23257450  0.57861328    -0.02700
C1546       C  0.97486277  0.21195021  0.58854338     0.07000
C1547       C  0.00491462  0.20593145  0.56843039    -0.02800
C1548       C  0.00333883  0.21871641  0.53806742    -0.02800
C1549       C  0.97186071  0.23886309  0.52764772     0.07100
C1550       C  0.94265806  0.24656125  0.54877985    -0.03000
Br1551     Br  0.90099518  0.27832890  0.53849892    -0.01600
Br1552     Br  0.90374706  0.24320361  0.60654286    -0.01600
Br1553     Br  0.04404559  0.20654525  0.51105076    -0.01600
Br1554     Br  0.04785403  0.17883833  0.58249391    -0.01600
C1555       C  0.96753001  0.27916933  0.78793568    -0.02700
C1556       C  0.98577717  0.24596306  0.77903729     0.07000
C1557       C  0.01282272  0.23033379  0.79793271    -0.02800
C1558       C  0.01693464  0.24389219  0.82770928    -0.02800
C1559       C  0.99637040  0.27548107  0.83765568     0.07100
C1560       C  0.97431851  0.29502343  0.81657593    -0.03000
Br1561     Br  0.95233990  0.34286335  0.82643249    -0.01600
Br1562     Br  0.93207430  0.30236089  0.76135004    -0.01600
Br1563     Br  0.05102931  0.21916715  0.85458012    -0.01600
Br1564     Br  0.04499396  0.19149147  0.78251891    -0.01600
C1565       C  0.87803471  0.62697079  0.63753583    -0.02700
C1566       C  0.89450681  0.63800365  0.60987985     0.07000
C1567       C  0.87933190  0.62507788  0.58243999    -0.02800
C1568       C  0.85112910  0.59763256  0.58277121    -0.02800
C1569       C  0.83769097  0.58351698  0.61054062     0.07100
C1570       C  0.84933612  0.60021510  0.63783331    -0.03000
Br1571     Br  0.82948666  0.58285807  0.67598368    -0.01600
Br1572     Br  0.89832399  0.64441569  0.67532755    -0.01600
Br1573     Br  0.83278382  0.57696281  0.54540968    -0.01600
Br1574     Br  0.89957042  0.64273068  0.54460775    -0.01600
C1575       C  0.68921672  0.37870965  0.66144268    -0.02700
C1576       C  0.68953917  0.39550562  0.63273584     0.07000
C1577       C  0.65928976  0.39054159  0.61323478    -0.02800
C1578       C  0.62785808  0.37005507  0.62276300    -0.02800
C1579       C  0.62654328  0.35367781  0.65219685     0.07100
C1580       C  0.65871323  0.35684526  0.67083338    -0.03000
Br1581     Br  0.66362880  0.33083518  0.70909743    -0.01600
Br1582     Br  0.72992354  0.38796209  0.68889544    -0.01600
Br1583     Br  0.58786947  0.36500031  0.59407790    -0.01600
Br1584     Br  0.66158185  0.41121298  0.57276243    -0.01600
C1585       C  0.84513238  0.32794283  0.65930244    -0.02700
C1586       C  0.86221771  0.36295289  0.65637225     0.07000
C1587       C  0.89924823  0.36782825  0.66614037    -0.02800
C1588       C  0.92069312  0.33638774  0.67424232    -0.02800
C1589       C  0.90412473  0.30062422  0.67557666     0.07100
C1590       C  0.86547611  0.29723413  0.66985845    -0.03000
Br1591     Br  0.83892692  0.25099531  0.67552615    -0.01600
Br1592     Br  0.79298350  0.32248056  0.65006141    -0.01600
Br1593     Br  0.97239619  0.34278352  0.68423503    -0.01600
Br1594     Br  0.92130598  0.41719991  0.66754204    -0.01600
C1595       C  0.91869134  0.40158319  0.55444396    -0.02700
C1596       C  0.89195856  0.42914285  0.54760962     0.07000
C1597       C  0.88932633  0.44244337  0.51771247    -0.02800
C1598       C  0.90976426  0.42494706  0.99431193    -0.02800
C1599       C  0.93221819  0.39351787  0.00076792     0.07100
C1600       C  0.93963964  0.38483899  0.53119116    -0.03000
Br1601     Br  0.97708468  0.34810800  0.54105831    -0.01600
Br1602     Br  0.92274094  0.38112731  0.59432221    -0.01600
Br1603     Br  0.90444507  0.44311017  0.95368750    -0.01600
Br1604     Br  0.85544651  0.48274441  0.50853087    -0.01600
C1605       C  0.60985378  0.58272438  0.83212504    -0.02700
C1606       C  0.63428597  0.58081276  0.85687476     0.07000
C1607       C  0.63331744  0.60998010  0.87851777    -0.02800
C1608       C  0.60457074  0.63712116  0.87809695    -0.02800
C1609       C  0.57828860  0.63697552  0.85447018     0.07100
C1610       C  0.58323430  0.61151151  0.83030770    -0.03000
Br1611     Br  0.55165569  0.61480353  0.79532882    -0.01600
Br1612     Br  0.60938306  0.54384565  0.80219925    -0.01600
Br1613     Br  0.59874526  0.67101170  0.91183398    -0.01600
Br1614     Br  0.67109043  0.61201237  0.90897632    -0.01600
C1615       C  0.60595466  0.32452437  0.87021748    -0.02700
C1616       C  0.62211750  0.34904248  0.89155431     0.07000
C1617       C  0.61410786  0.34433045  0.92265017    -0.02800
C1618       C  0.59072824  0.31512761  0.93237565    -0.02800
C1619       C  0.57387077  0.29133095  0.91105434     0.07100
C1620       C  0.58186161  0.29576775  0.87995555    -0.03000
Br1621     Br  0.55928459  0.26278967  0.85069074    -0.01600
Br1622     Br  0.61498533  0.33162431  0.82747693    -0.01600
Br1623     Br  0.58236108  0.30718004  0.97509311    -0.01600
Br1624     Br  0.63451986  0.37829555  0.95211231    -0.01600
C1625       C  0.59251983  0.44240394  0.76637725    -0.02700
C1626       C  0.58274812  0.43869148  0.79726396     0.07000
C1627       C  0.55207554  0.41634326  0.80516504    -0.02800
C1628       C  0.53487652  0.39364609  0.78311484    -0.02800
C1629       C  0.54645482  0.39521695  0.75231662     0.07100
C1630       C  0.57346251  0.42215960  0.74386735    -0.03000
Br1631     Br  0.58886956  0.42844786  0.70206487    -0.01600
Br1632     Br  0.63588747  0.47075850  0.75498459    -0.01600
Br1633     Br  0.49782024  0.35825820  0.79631938    -0.01600
Br1634     Br  0.53740568  0.41269260  0.84723631    -0.01600
C1635       C  0.79313937  0.36532994  0.88423570    -0.02700
C1636       C  0.79523335  0.40397695  0.87724078     0.07000
C1637       C  0.83045882  0.42128001  0.87564805    -0.02800
C1638       C  0.86290772  0.40063509  0.88219032    -0.02800
C1639       C  0.86013815  0.36326108  0.89238486     0.07100
C1640       C  0.82526744  0.34544914  0.89242413    -0.03000
Br1641     Br  0.82175815  0.29289296  0.90241479    -0.01600
Br1642     Br  0.74643394  0.33882393  0.88336065    -0.01600
Br1643     Br  0.91094290  0.42369891  0.87670283    -0.01600
Br1644     Br  0.83458660  0.47287054  0.86317696    -0.01600
C1645       C  0.72227967  0.44785700  0.97015196    -0.02700
C1646       C  0.70187066  0.47960569  0.96137610     0.07000
C1647       C  0.69764885  0.50919802  0.98240499    -0.02800
C1648       C  0.71411314  0.50745579  0.01158106    -0.02800
C1649       C  0.73407894  0.47516741  0.52079940     0.07100
C1650       C  0.73845576  0.44562765  0.49918771    -0.03000
Br1651     Br  0.76890620  0.40208340  0.50739331    -0.01600
Br1652     Br  0.72900726  0.40730158  0.94176048    -0.01600
Br1653     Br  0.70854383  0.55006593  0.03829821    -0.01600
Br1654     Br  0.66691423  0.55115612  0.97184165    -0.01600
C1655       C  0.77658298  0.46128389  0.76119095    -0.02700
C1656       C  0.74676995  0.48359297  0.77143483     0.07000
C1657       C  0.73371789  0.51259681  0.75283557    -0.02800
C1658       C  0.74673885  0.51596474  0.72268827    -0.02800
C1659       C  0.77458851  0.49162734  0.71135010     0.07100
C1660       C  0.79104449  0.46579265  0.73158278    -0.03000
Br1661     Br  0.83260476  0.43533792  0.71948649    -0.01600
Br1662     Br  0.79751987  0.42429955  0.78799004    -0.01600
Br1663     Br  0.72683884  0.55459401  0.69707140    -0.01600
Br1664     Br  0.69886553  0.54834524  0.76902740    -0.01600
loop_ 
_geom_bond_atom_site_label_1 
_geom_bond_atom_site_label_2 
_geom_bond_distance 
_geom_bond_site_symmetry_2 
_ccdc_geom_bond_type 
O1          Cr19   2.031       .  S
O1            C9   1.270       .  A
O2          Cr19   2.004       .  S
O2            C3   1.268       .  A
C3            O4   1.260       .  A
C3          C804   1.490       .  S
O4          Cr20   1.984       .  S
O5          Cr20   2.001       .  S
O5            C6   1.262       .  A
C6            O7   1.254       .  A
C6          C784   1.480       .  S
O7          Cr21   1.981       .  S
O8          Cr21   2.008       .  S
O8            C9   1.268       .  A
C9          C814   1.506       .  S
O10         Cr19   2.018       .  S
O10          C18   1.264       .  A
O11         Cr19   2.009       .  S
O11          C12   1.262       .  A
C12          O13   1.260       .  A
C12         C824   1.486       .  S
O13         Cr20   1.985       .  S
O14         Cr20   1.975       .  S
O14          C15   1.261       .  A
C15          O16   1.273       .  A
C15         C794   1.480       .  S
O16         Cr21   2.012       .  S
O17         Cr21   2.003       .  S
O17          C18   1.260       .  A
C18         C774   1.495       .  S
Cr19         O22   1.792       .  S
Cr20         O22   1.786       .  S
Cr21         O22   1.789       .  S
O23         Cr41   2.021       .  S
O23          C31   1.270       .  A
O24         Cr41   1.986       .  S
O24          C25   1.264       .  A
C25          O26   1.272       .  A
C25         C827   1.499       .  S
O26         Cr42   2.027       .  S
O27         Cr42   1.952       .  S
O27          C28   1.247       .  A
C28          O29   1.263       .  A
C28         C754   1.474       .  S
O29         Cr43   2.012       .  S
O30         Cr43   1.968       .  S
O30          C31   1.259       .  A
C31         C744   1.476       .  S
O32         Cr41   2.019       .  S
O32          C40   1.269       .  A
O33         Cr41   2.030       .  S
O33          C34   1.267       .  A
C34          O35   1.253       .  A
C34         C737   1.479       .  S
O35         Cr42   1.962       .  S
O36         Cr42   2.022       .  S
O36          C37   1.270       .  A
C37          O38   1.260       .  A
C37         C764   1.476       .  S
O38         Cr43   1.961       .  S
O39         Cr43   2.015       .  S
O39          C40   1.265       .  A
C40         C817   1.521       .  S
Cr41         O44   1.774       .  S
Cr42         O44   1.771       .  S
Cr43         O44   1.766       .  S
O45         Cr63   2.031       .  S
O45          C53   1.273       .  A
O46         Cr63   2.010       .  S
O46          C47   1.271       .  A
C47          O48   1.260       .  A
C47         C757   1.487       .  S
O48         Cr64   1.976       .  S
O49         Cr64   1.997       .  S
O49          C50   1.258       .  A
C50          O51   1.248       .  A
C50         C697   1.470       .  S
O51         Cr65   1.963       .  S
O52         Cr65   1.991       .  S
O52          C53   1.267       .  A
C53         C714   1.491       .  S
O54         Cr63   2.064   1_455  S
O54          C62   1.268       .  A
O55         Cr63   1.990       .  S
O55          C56   1.258       .  A
C56          O57   1.260       .  A
C56         C724   1.473       .  S
O57         Cr64   1.986       .  S
O58         Cr64   1.979       .  S
O58          C59   1.263       .  A
C59          O60   1.272       .  A
C59         C707   1.476       .  S
O60         Cr65   2.018       .  S
O61         Cr65   1.974   1_455  S
O61          C62   1.243       .  A
C62         C687   1.515       .  S
Cr63         O66   1.782       .  S
Cr64         O66   1.776       .  S
Cr65         O66   1.770       .  S
O67         Cr85   2.040       .  S
O67          C75   1.275       .  A
O68         Cr85   1.966       .  S
O68          C69   1.261       .  A
C69          O70   1.269       .  A
C69         C727   1.484       .  S
O70         Cr86   2.016       .  S
O71         Cr86   1.985       .  S
O71          C72   1.257       .  A
C72          O73   1.261       .  A
C72         C807   1.485       .  S
O73         Cr87   2.002       .  S
O74         Cr87   1.969       .  S
O74          C75   1.260       .  A
C75         C677   1.482       .  S
O76         Cr85   2.014       .  S
O76          C84   1.265       .  A
O77         Cr85   2.031   1_455  S
O77          C78   1.267       .  A
C78          O79   1.255       .  A
C78         C664   1.483       .  S
O79         Cr86   1.957   1_455  S
O80         Cr86   2.020       .  S
O80          C81   1.269       .  A
C81          O82   1.262       .  A
C81         C767   1.481       .  S
O82         Cr87   1.960       .  S
O83         Cr87   2.009       .  S
O83          C84   1.262       .  A
C84        C1549   1.511       .  S
Cr85         O88   1.776       .  S
Cr86         O88   1.772       .  S
Cr87         O88   1.764       .  S
O89        Cr107   2.043   1_545  S
O89          C97   1.277       .  A
O90        Cr107   1.977       .  S
O90          C91   1.262       .  A
C91          O92   1.272       .  A
C91         C657   1.498       .  S
O92        Cr108   2.029   1_565  S
O93        Cr108   1.975       .  S
O93          C94   1.253       .  A
C94          O95   1.257       .  A
C94         C627   1.472       .  S
O95        Cr109   1.999       .  S
O96        Cr109   1.943       .  S
O96          C97   1.253       .  A
C97         C694   1.467       .  S
O98        Cr107   2.009       .  S
O98         C106   1.263   1_565  A
O99        Cr107   2.036       .  S
O99         C100   1.271       .  A
C100        O101   1.257       .  A
C100        C617   1.490       .  S
O101       Cr108   1.964   1_565  S
O102       Cr108   2.035       .  S
O102        C103   1.272       .  A
C103        O104   1.255       .  A
C103        C634   1.468       .  S
O104       Cr109   1.951       .  S
O105       Cr109   2.005       .  S
O105        C106   1.259       .  A
C106        C644   1.505       .  S
Cr107       O110   1.765   1_565  S
Cr108       O110   1.767       .  S
Cr109       O110   1.758       .  S
O111       Cr129   1.978       .  S
O111        C119   1.260   1_565  A
O112       Cr129   2.033   1_545  S
O112        C113   1.271       .  A
C113        O114   1.261       .  A
C113        C604   1.509       .  S
O114       Cr130   1.981       .  S
O115       Cr130   2.011       .  S
O115        C116   1.261       .  A
C116        O117   1.257       .  A
C116        C674   1.505       .  S
O117       Cr131   1.982       .  S
O118       Cr131   2.019   1_565  S
O118        C119   1.268   1_565  A
C119        C647   1.490       .  S
O120       Cr129   2.036       .  S
O120        C128   1.269       .  A
O121       Cr129   1.994       .  S
O121        C122   1.261   1_565  A
C122        O123   1.267       .  A
C122        C654   1.496   1_545  S
O123       Cr130   2.016       .  S
O124       Cr130   1.979       .  S
O124        C125   1.265       .  A
C125        O126   1.271       .  A
C125        C704   1.500       .  S
O126       Cr131   2.019       .  S
O127       Cr131   1.959   1_565  S
O127        C128   1.256       .  A
C128        C594   1.498       .  S
Cr129       O132   1.785   1_565  S
Cr130       O132   1.774       .  S
Cr131       O132   1.778       .  S
O133       Cr151   2.045       .  S
O133        C141   1.278       .  A
O134       Cr151   1.966       .  S
O134        C135   1.262       .  A
C135        O136   1.275       .  A
C135        C584   1.492       .  S
O136       Cr152   2.035       .  S
O137       Cr152   1.982       .  S
O137        C138   1.257       .  A
C138        O139   1.263       .  A
C138        C607   1.488       .  S
O139       Cr153   2.033       .  S
O140       Cr153   1.954       .  S
O140        C141   1.257       .  A
C141        C787   1.476       .  S
O142       Cr151   2.024       .  S
O142        C150   1.266       .  A
O143       Cr151   2.035       .  S
O143        C144   1.270       .  A
C144        O145   1.259       .  A
C144        C564   1.492       .  S
O145       Cr152   1.976       .  S
O146       Cr152   2.046       .  S
O146        C147   1.271       .  A
C147        O148   1.243       .  A
C147        C637   1.471       .  S
O148       Cr153   1.932       .  S
O149       Cr153   2.023       .  S
O149        C150   1.264       .  A
C150       C1409   1.508       .  S
Cr151       O154   1.767       .  S
Cr152       O154   1.781       .  S
Cr153       O154   1.754       .  S
O155       Cr173   1.980       .  S
O155        C163   1.257       .  A
O156       Cr173   2.013       .  S
O156        C157   1.268       .  A
C157        O158   1.257       .  A
C157        C624   1.506       .  S
O158       Cr174   1.964       .  S
O159       Cr174   2.004       .  S
O159        C160   1.260       .  A
C160        O161   1.258       .  A
C160        C747   1.508       .  S
O161       Cr175   1.987       .  S
O162       Cr175   2.046       .  S
O162        C163   1.271       .  A
C163        C574   1.528       .  S
O164       Cr173   2.026       .  S
O164        C172   1.270       .  A
O165       Cr173   1.993       .  S
O165        C166   1.262       .  A
C166        O167   1.263       .  A
C166        C587   1.493       .  S
O167       Cr174   2.006       .  S
O168       Cr174   1.971       .  S
O168        C169   1.262       .  A
C169        O170   1.275       .  A
C169        C797   1.497       .  S
O170       Cr175   2.037       .  S
O171       Cr175   1.953       .  S
O171        C172   1.256       .  A
C172        C554   1.480       .  S
Cr173       O176   1.767       .  S
Cr174       O176   1.768       .  S
Cr175       O176   1.770       .  S
O177       Cr195   2.005       .  S
O177        C185   1.272       .  A
O178       Cr195   2.020       .  S
O178        C179   1.266       .  A
C179        O180   1.262       .  A
C179        C527   1.491       .  S
O180       Cr196   1.981       .  S
O181       Cr196   1.976       .  S
O181        C182   1.255       .  A
C182        O183   1.263       .  A
C182        C507   1.484       .  S
O183       Cr197   2.009       .  S
O184       Cr197   1.997       .  S
O184        C185   1.265       .  A
C185        C544   1.499       .  S
O186       Cr195   1.998       .  S
O186        C194   1.258       .  A
O187       Cr195   2.050   1_545  S
O187        C188   1.272       .  A
C188        O189   1.253       .  A
C188        C684   1.517       .  S
O189       Cr196   1.989   1_545  S
O190       Cr196   1.996       .  S
O190        C191   1.264       .  A
C191        O192   1.266       .  A
C191        C517   1.474       .  S
O192       Cr197   1.995       .  S
O193       Cr197   2.012       .  S
O193        C194   1.265       .  A
C194        C534   1.495       .  S
Cr195       O198   1.779       .  S
Cr196       O198   1.769       .  S
Cr197       O198   1.780       .  S
O199       Cr217   1.958       .  S
O199        C207   1.261       .  A
O200       Cr217   2.035       .  S
O200        C201   1.274       .  A
C201        O202   1.256       .  A
C201        C474   1.506       .  S
O202       Cr218   1.965       .  S
O203       Cr218   2.013       .  S
O203        C204   1.259       .  A
C204        O205   1.256       .  A
C204        C484   1.484       .  S
O205       Cr219   1.988       .  S
O206       Cr219   2.045       .  S
O206        C207   1.279       .  A
C207        C537   1.497       .  S
O208       Cr217   2.031   1_545  S
O208        C216   1.266       .  A
O209       Cr217   2.001       .  S
O209        C210   1.264       .  A
C210        O211   1.264       .  A
C210       C1356   1.481       .  S
O211       Cr218   2.007       .  S
O212       Cr218   1.939       .  S
O212        C213   1.249       .  A
C213        O214   1.274       .  A
C213        C497   1.472       .  S
O214       Cr219   2.042       .  S
O215       Cr219   1.968   1_545  S
O215        C216   1.254       .  A
C216        C567   1.485       .  S
Cr217       O220   1.766       .  S
Cr218       O220   1.754       .  S
Cr219       O220   1.768       .  S
O221       Cr239   2.031       .  S
O221        C229   1.274       .  A
O222       Cr239   1.985       .  S
O222        C223   1.263       .  A
C223        O224   1.270       .  A
C223        C464   1.499       .  S
O224       Cr240   2.024       .  S
O225       Cr240   1.981       .  S
O225        C226   1.255       .  A
C226        O227   1.263       .  A
C226        C434   1.493       .  S
O227       Cr241   2.014       .  S
O228       Cr241   1.979       .  S
O228        C229   1.264       .  A
C229        C487   1.492       .  S
O230       Cr239   2.019       .  S
O230        C238   1.268       .  A
O231       Cr239   2.040       .  S
O231        C232   1.270       .  A
C232        O233   1.255       .  A
C232        C777   1.492       .  S
O233       Cr240   1.957       .  S
O234       Cr240   2.027       .  S
O234        C235   1.272       .  A
C235        O236   1.263       .  A
C235        C447   1.495       .  S
O236       Cr241   1.973       .  S
O237       Cr241   2.007       .  S
O237        C238   1.262       .  A
C238        C457   1.509       .  S
Cr239       O242   1.780       .  S
Cr240       O242   1.776       .  S
Cr241       O242   1.770       .  S
O243       Cr261   1.969       .  S
O243        C251   1.259       .  A
O244       Cr261   2.039       .  S
O244        C245   1.278       .  A
C245        O246   1.258       .  A
C245        C424   1.503       .  S
O246       Cr262   1.940       .  S
O247       Cr262   2.038       .  S
O247        C248   1.269       .  A
C248        O249   1.256       .  A
C248        C547   1.509       .  S
O249       Cr263   1.973       .  S
O250       Cr263   2.043       .  S
O250        C251   1.274       .  A
C251        C454   1.503       .  S
O252       Cr261   2.034       .  S
O252        C260   1.273       .  A
O253       Cr261   2.009       .  S
O253        C254   1.261       .  A
C254        O255   1.256       .  A
C254        C467   1.498       .  S
O255       Cr262   1.989       .  S
O256       Cr262   1.951       .  S
O256        C257   1.244       .  A
C257        O258   1.273       .  A
C257        C494   1.476       .  S
O258       Cr263   2.056       .  S
O259       Cr263   1.964       .  S
O259        C260   1.257       .  A
C260        C614   1.493       .  S
Cr261       O264   1.768       .  S
Cr262       O264   1.752       .  S
Cr263       O264   1.782       .  S
O265       Cr283   1.995       .  S
O265        C273   1.263       .  A
O266       Cr283   2.042   1_455  S
O266        C267   1.279       .  A
C267        O268   1.261       .  A
C267        C504   1.481       .  S
O268       Cr284   1.969       .  S
O269       Cr284   1.988       .  S
O269        C270   1.253       .  A
C270        O271   1.256       .  A
C270        C384   1.483       .  S
O271       Cr285   1.990       .  S
O272       Cr285   2.019   1_655  S
O272        C273   1.268       .  A
C273        C404   1.507       .  S
O274       Cr283   2.029       .  S
O274        C282   1.271       .  A
O275       Cr283   2.029       .  S
O275        C276   1.264   1_655  A
C276        O277   1.253       .  A
C276        C417   1.525       .  S
O277       Cr284   1.996       .  S
O278       Cr284   1.988       .  S
O278        C279   1.270       .  A
C279        O280   1.276       .  A
C279        C394   1.496       .  S
O280       Cr285   2.033       .  S
O281       Cr285   1.962   1_655  S
O281        C282   1.258       .  A
C282        C734   1.480       .  S
Cr283       O286   1.776   1_655  S
Cr284       O286   1.774       .  S
Cr285       O286   1.768       .  S
O287       Cr305   2.039   1_455  S
O287        C295   1.277       .  A
O288       Cr305   1.979       .  S
O288        C289   1.259       .  A
C289        O290   1.270       .  A
C289        C414   1.498       .  S
O290       Cr306   2.032   1_655  S
O291       Cr306   1.967       .  S
O291        C292   1.250       .  A
C292        O293   1.263       .  A
C292        C477   1.483       .  S
O293       Cr307   2.021       .  S
O294       Cr307   1.962       .  S
O294        C295   1.261       .  A
C295        C374   1.484       .  S
O296       Cr305   2.005       .  S
O296        C304   1.262       .  A
O297       Cr305   2.043       .  S
O297        C298   1.271       .  A
C298        O299   1.254       .  A
C298        C597   1.494       .  S
O299       Cr306   1.946   1_655  S
O300       Cr306   2.047       .  S
O300        C301   1.277       .  A
C301        O302   1.260       .  A
C301        C514   1.502       .  S
O302       Cr307   1.957       .  S
O303       Cr307   2.014       .  S
O303        C304   1.264   1_455  A
C304        C407   1.504       .  S
Cr305       O308   1.782   1_655  S
Cr306       O308   1.779       .  S
Cr307       O308   1.776       .  S
O309       Cr327   2.009       .  S
O309        C317   1.271       .  A
O310       Cr327   1.979       .  S
O310        C311   1.261       .  A
C311        O312   1.274       .  A
C311        C364   1.501       .  S
O312       Cr328   2.036       .  S
O313       Cr328   1.966       .  S
O313        C314   1.249       .  A
C314        O315   1.257       .  A
C314        C427   1.481       .  S
O315       Cr329   2.002       .  S
O316       Cr329   1.966       .  S
O316        C317   1.263       .  A
C317        C387   1.476       .  S
O318       Cr327   2.018       .  S
O318        C326   1.266       .  A
O319       Cr327   2.016       .  S
O319        C320   1.263       .  A
C320        O321   1.257       .  A
C320        C557   1.478       .  S
O321       Cr328   1.960       .  S
O322       Cr328   2.052       .  S
O322        C323   1.279       .  A
C323        O324   1.262       .  A
C323        C444   1.499       .  S
O324       Cr329   1.967       .  S
O325       Cr329   1.995       .  S
O325        C326   1.257       .  A
C326        C357   1.500       .  S
Cr327       O330   1.781       .  S
Cr328       O330   1.770       .  S
Cr329       O330   1.773       .  S
O331       Cr349   2.030       .  S
O331        C339   1.271       .  A
O332       Cr349   2.005       .  S
O332        C333   1.269       .  A
C333        O334   1.260       .  A
C333        C437   1.497       .  S
O334       Cr350   1.988       .  S
O335       Cr350   1.997       .  S
O335        C336   1.258       .  A
C336        O337   1.256       .  A
C336        C377   1.480       .  S
O337       Cr351   1.992       .  S
O338       Cr351   2.000       .  S
O338        C339   1.267       .  A
C339        C354   1.497       .  S
O340       Cr349   2.005       .  S
O340        C348   1.261       .  A
O341       Cr349   2.007       .  S
O341        C342   1.262       .  A
C342        O343   1.261       .  A
C342       C1199   1.489       .  S
O343       Cr350   1.988       .  S
O344       Cr350   1.987       .  S
O344        C345   1.264       .  A
C345        O346   1.271       .  A
C345        C397   1.485       .  S
O346       Cr351   2.011       .  S
O347       Cr351   2.004       .  S
O347        C348   1.260       .  A
C348        C667   1.487       .  S
Cr349       O352   1.793       .  S
Cr350       O352   1.784       .  S
Cr351       O352   1.796       .  S
C353        C354   1.405       .  A
C353        C358   1.405       .  A
C353       Br360   1.912       .  S
C354        C355   1.412       .  A
C355        C356   1.422       .  A
C355       Br362   1.922       .  S
C356        C357   1.418       .  A
C356       Br361   1.929       .  S
C357        C358   1.420       .  A
C358       Br359   1.942       .  S
C363        C364   1.416       .  A
C363        C368   1.411       .  A
C363       Br370   1.920       .  S
C364        C365   1.417       .  A
C365        C366   1.417       .  A
C365       Br372   1.927       .  S
C366        C367   1.410       .  A
C366       Br371   1.925       .  S
C367       C1174   1.489   1_554  S
C367        C368   1.408       .  A
C368      Br1201   1.932       .  S
Br369      C1200   1.932       .  S
C373        C374   1.409       .  A
C373        C378   1.403       .  A
C373       Br380   1.926       .  S
C374        C375   1.417       .  A
C375        C376   1.412       .  A
C375       Br382   1.931       .  S
C376        C377   1.407       .  A
C376       Br381   1.921       .  S
C377        C378   1.406       .  A
C378       Br379   1.921       .  S
C383        C384   1.419       .  A
C383        C388   1.406       .  A
C383       Br390   1.937       .  S
C384        C385   1.413       .  A
C385        C386   1.403       .  A
C385       Br392   1.932       .  S
C386        C387   1.412       .  A
C386       Br391   1.935       .  S
C387        C388   1.410       .  A
C388       Br389   1.934       .  S
C393        C394   1.414       .  A
C393       C1230   1.418   1_554  A
C393       Br400   1.927   1_454  S
C394        C395   1.415       .  A
C395        C396   1.406       .  A
C395       Br402   1.930       .  S
C396       C1229   1.410   1_554  A
C396       Br401   1.928       .  S
C397        C398   1.412       .  A
C397       C1228   1.410       .  A
C398       C1225   1.418       .  A
C398       Br399   1.929       .  S
C403        C404   1.418       .  A
C403        C408   1.419       .  A
C403       Br410   1.929       .  S
C404        C405   1.416   1_655  A
C405        C406   1.414       .  A
C405       Br412   1.924       .  S
C406        C407   1.413   1_455  A
C406       Br411   1.932       .  S
C407        C408   1.413       .  A
C408       Br409   1.928       .  S
C413        C414   1.406   1_455  A
C413        C418   1.414       .  A
C413       Br420   1.937       .  S
C414        C415   1.408       .  A
C415       C1248   1.423       .  A
C415       Br422   1.924       .  S
C416        C417   1.427   1_655  A
C416       C1247   1.423   1_554  A
C416       Br421   1.931       .  S
C417       C1250   1.434   1_554  A
C418       C1249   1.434       .  A
C418      Br1251   1.941       .  S
Br419      C1250   1.941   1_554  S
C423        C424   1.424       .  A
C423        C428   1.410       .  A
C423       Br430   1.939       .  S
C424        C425   1.431       .  A
C425        C426   1.407       .  A
C425       Br432   1.945       .  S
C426        C427   1.406       .  A
C426       Br431   1.938       .  S
C427        C428   1.413       .  A
C428       Br429   1.940       .  S
C433        C434   1.419       .  A
C433        C438   1.416       .  A
C433       Br440   1.932       .  S
C434        C435   1.409       .  A
C435        C436   1.409       .  A
C435       Br442   1.935       .  S
C436        C437   1.418       .  A
C436       Br441   1.928       .  S
C437        C438   1.412       .  A
C438       Br439   1.931       .  S
C443        C444   1.416       .  A
C443        C448   1.411       .  A
C443       Br450   1.928       .  S
C444        C445   1.417       .  A
C445        C446   1.410       .  A
C445       Br452   1.917       .  S
C446        C447   1.410       .  A
C446       Br451   1.934       .  S
C447        C448   1.413       .  A
C448       Br449   1.924       .  S
C453        C454   1.412       .  A
C453        C458   1.425       .  A
C453       Br460   1.925       .  S
C454        C455   1.412       .  A
C455        C456   1.407       .  A
C455       Br462   1.924       .  S
C456        C457   1.420       .  A
C456       Br461   1.943       .  S
C457        C458   1.422       .  A
C458       Br459   1.928       .  S
C463        C464   1.414       .  A
C463       C1300   1.410       .  A
C463       Br470   1.928       .  S
C464        C465   1.417       .  A
C465       C1298   1.416       .  A
C465       Br472   1.931       .  S
C466        C467   1.413   1_556  A
C466       C1297   1.416       .  A
C466       Br471   1.925   1_556  S
C467        C468   1.417       .  A
C468       C1295   1.410   1_554  A
C468       Br469   1.936       .  S
C473        C474   1.431       .  A
C473        C478   1.412       .  A
C473       Br480   1.937       .  S
C474        C475   1.422       .  A
C475        C476   1.408       .  A
C475       Br482   1.939       .  S
C476        C477   1.409       .  A
C476       Br481   1.930       .  S
C477        C478   1.404       .  A
C478       Br479   1.934       .  S
C483        C484   1.412       .  A
C483        C488   1.409       .  A
C483       Br490   1.925       .  S
C484        C485   1.405       .  A
C485        C486   1.414       .  A
C485       Br492   1.929       .  S
C486        C487   1.419       .  A
C486       Br491   1.930       .  S
C487        C488   1.413       .  A
C488       Br489   1.934       .  S
C493        C494   1.419       .  A
C493        C498   1.394       .  A
C493       Br500   1.951       .  S
C494        C495   1.410       .  A
C495        C496   1.414       .  A
C495       Br502   1.923       .  S
C496       C1329   1.408   1_554  A
C496      Br1333   1.924       .  S
C497       C1328   1.408       .  A
C497       C1330   1.414       .  A
C498       C1329   1.414   1_554  A
C498      Br1331   1.944   1_554  S
Br499      C1330   1.944       .  S
Br501      C1328   1.924       .  S
C503        C504   1.412       .  A
C503        C508   1.414       .  A
C503       Br510   1.926       .  S
C504        C505   1.406       .  A
C505        C506   1.408       .  A
C505       Br512   1.929       .  S
C506        C507   1.412       .  A
C506       Br511   1.925       .  S
C507        C508   1.411       .  A
C508       Br509   1.930       .  S
C513        C514   1.419       .  A
C513        C518   1.411       .  A
C513       Br520   1.920       .  S
C514        C515   1.422       .  A
C515        C516   1.406       .  A
C515       Br522   1.932       .  S
C516        C517   1.404       .  A
C516       Br521   1.928       .  S
C517        C518   1.400       .  A
C518       Br519   1.919       .  S
C523        C524   1.410       .  A
C523        C528   1.410       .  A
C523       Br530   1.926       .  S
C524       C1042   1.481   1_554  S
C524        C525   1.407       .  A
C525        C526   1.409       .  A
C525      Br1364   1.931       .  S
C526        C527   1.416       .  A
C526       Br531   1.932       .  S
C527        C528   1.418       .  A
C528       Br529   1.937       .  S
Br532      C1357   1.931       .  S
C533        C534   1.413       .  A
C533        C538   1.414       .  A
C533       Br540   1.921       .  S
C534        C535   1.407   1_565  A
C535        C536   1.413       .  A
C535       Br542   1.922       .  S
C536        C537   1.418   1_545  A
C536       Br541   1.932       .  S
C537        C538   1.414       .  A
C538       Br539   1.930       .  S
C543        C544   1.414       .  A
C543        C548   1.415       .  A
C543       Br550   1.932       .  S
C544        C545   1.406       .  A
C545        C546   1.407       .  A
C545       Br552   1.928       .  S
C546        C547   1.421       .  A
C546       Br551   1.925       .  S
C547        C548   1.424       .  A
C548       Br549   1.932       .  S
C553        C554   1.412       .  A
C553        C558   1.414       .  A
C553       Br560   1.929       .  S
C554        C555   1.411       .  A
C555        C556   1.399       .  A
C555       Br562   1.920       .  S
C556        C557   1.401       .  A
C556       Br561   1.922       .  S
C557        C558   1.410       .  A
C558       Br559   1.920       .  S
C563        C564   1.414       .  A
C563        C568   1.416       .  A
C563       Br570   1.924       .  S
C564        C565   1.410       .  A
C565        C566   1.407       .  A
C565       Br572   1.918       .  S
C566        C567   1.405       .  A
C566       Br571   1.923       .  S
C567        C568   1.410       .  A
C568       Br569   1.928       .  S
C573        C574   1.427       .  A
C573        C578   1.415       .  A
C573       Br580   1.941       .  S
C574        C575   1.428       .  A
C575        C576   1.426       .  A
C575       Br582   1.929       .  S
C576        C577   1.411       .  A
C576       Br581   1.928   1_554  S
C577        C982   1.509   1_554  S
C577        C578   1.410       .  A
C578      Br1411   1.920       .  S
Br579      C1410   1.920       .  S
C583        C584   1.414       .  A
C583        C588   1.411       .  A
C583       Br590   1.932       .  S
C584        C585   1.414       .  A
C585        C586   1.413       .  A
C585       Br592   1.927       .  S
C586        C587   1.416       .  A
C586       Br591   1.934       .  S
C587        C588   1.410       .  A
C588       Br589   1.923       .  S
C593        C594   1.414       .  A
C593        C598   1.404       .  A
C593       Br600   1.930       .  S
C594        C595   1.417       .  A
C595        C596   1.422       .  A
C595       Br602   1.924       .  S
C596        C597   1.412       .  A
C596       Br601   1.923       .  S
C597        C598   1.410       .  A
C598       Br599   1.932       .  S
C603        C604   1.426       .  A
C603        C608   1.414       .  A
C603       Br610   1.934       .  S
C604        C605   1.423       .  A
C605        C606   1.414       .  A
C605       Br612   1.937       .  S
C606        C607   1.410       .  A
C606       Br611   1.930       .  S
C607        C608   1.404       .  A
C608       Br609   1.929       .  S
C613        C614   1.413       .  A
C613        C618   1.415       .  A
C613       Br620   1.925       .  S
C614        C615   1.417       .  A
C615        C616   1.409       .  A
C615       Br622   1.931       .  S
C616        C617   1.408       .  A
C616       Br621   1.930       .  S
C617        C618   1.411       .  A
C618       Br619   1.924       .  S
C623        C624   1.432       .  A
C623        C628   1.409       .  A
C623       Br630   1.940       .  S
C624        C625   1.429       .  A
C625        C626   1.408       .  A
C625       Br632   1.940       .  S
C626        C627   1.404       .  A
C626       Br631   1.938       .  S
C627        C628   1.403       .  A
C628       Br629   1.937       .  S
C633        C634   1.409       .  A
C633        C638   1.412       .  A
C633       Br640   1.921       .  S
C634        C635   1.408       .  A
C635        C636   1.391       .  A
C635       Br642   1.940       .  S
C636       C1469   1.419       .  A
C636      Br1473   1.946   1_554  S
C637       C1468   1.419       .  A
C637       C1470   1.408       .  A
C638       C1469   1.408       .  A
C638       Br639   1.924   1_554  S
Br641      C1468   1.946       .  S
C643        C644   1.424   1_556  A
C643       C1480   1.410       .  A
C643       Br650   1.931   1_556  S
C644       C1477   1.418   1_545  A
C645        C646   1.416       .  A
C645       C1476   1.418   1_565  A
C645       Br652   1.930       .  S
C646        C647   1.409   1_565  A
C646       Br651   1.924       .  S
C647        C648   1.409       .  A
C648       C1475   1.410       .  A
C648       Br649   1.935       .  S
C653        C654   1.413       .  A
C653        C658   1.415       .  A
C653       Br660   1.927       .  S
C654        C655   1.413   1_565  A
C655        C656   1.411       .  A
C655       Br662   1.934       .  S
C656        C657   1.416   1_545  A
C656       Br661   1.926       .  S
C657        C658   1.416       .  A
C658       Br659   1.931       .  S
C663        C664   1.412       .  A
C663        C668   1.415       .  A
C663       Br670   1.925       .  S
C664        C665   1.404       .  A
C665        C666   1.404       .  A
C665       Br672   1.924       .  S
C666        C667   1.408       .  A
C666       Br671   1.912       .  S
C667        C668   1.411       .  A
C668       Br669   1.922       .  S
C673        C674   1.426       .  A
C673        C678   1.414       .  A
C673       Br680   1.937       .  S
C674        C675   1.421       .  A
C675        C676   1.411       .  A
C675       Br682   1.929       .  S
C676        C677   1.405       .  A
C676       Br681   1.932       .  S
C677        C678   1.407       .  A
C678       Br679   1.930       .  S
C683        C684   1.421       .  A
C683        C688   1.430       .  A
C683       Br690   1.928       .  S
C684        C685   1.427       .  A
C685        C686   1.406       .  A
C685       Br692   1.954       .  S
C686        C687   1.427       .  A
C686       Br691   1.954       .  S
C687        C688   1.419       .  A
C688       Br689   1.928       .  S
C693        C694   1.405       .  A
C693        C698   1.403       .  A
C693       Br700   1.931       .  S
C694        C695   1.411       .  A
C695        C696   1.409       .  A
C695       Br702   1.930       .  S
C696        C697   1.409       .  A
C696       Br701   1.930       .  S
C697        C698   1.411       .  A
C698       Br699   1.926       .  S
C703        C704   1.423       .  A
C703        C708   1.411       .  A
C703       Br710   1.935       .  S
C704        C705   1.420       .  A
C705        C706   1.410       .  A
C705       Br712   1.930       .  S
C706        C707   1.405       .  A
C706       Br711   1.928       .  S
C707        C708   1.404       .  A
C708       Br709   1.921       .  S
C713        C714   1.407       .  A
C713        C718   1.411       .  A
C713       Br720   1.931       .  S
C714        C715   1.410   1_655  A
C715        C716   1.419       .  A
C715       Br722   1.931       .  S
C716        C717   1.423   1_455  A
C716       Br721   1.930       .  S
C717        C916   1.511   1_554  S
C717        C718   1.426       .  A
C718       Br719   1.938       .  S
C723        C724   1.408       .  A
C723        C728   1.406       .  A
C723       Br730   1.930       .  S
C724        C725   1.404   1_655  A
C725        C726   1.408       .  A
C725       Br732   1.925       .  S
C726        C727   1.415   1_455  A
C726       Br731   1.930       .  S
C727        C728   1.414       .  A
C728       Br729   1.929       .  S
C733        C734   1.410       .  A
C733        C738   1.408       .  A
C733       Br740   1.928       .  S
C734        C735   1.409       .  A
C735        C736   1.412       .  A
C735       Br742   1.925       .  S
C736        C737   1.409       .  A
C736       Br741   1.926       .  S
C737        C738   1.409       .  A
C738       Br739   1.929       .  S
C743        C744   1.404       .  A
C743        C748   1.409       .  A
C743       Br750   1.937       .  S
C744        C745   1.405       .  A
C745        C746   1.411       .  A
C745       Br752   1.937       .  S
C746        C747   1.427       .  A
C746       Br751   1.933       .  S
C747        C748   1.430       .  A
C748       Br749   1.940       .  S
C753        C754   1.400       .  A
C753        C758   1.402       .  A
C753       Br760   1.935       .  S
C754        C755   1.416       .  A
C755        C756   1.411       .  A
C755       Br762   1.936       .  S
C756        C757   1.412       .  A
C756       Br761   1.931       .  S
C757        C758   1.422       .  A
C758       Br759   1.925       .  S
C763        C764   1.411       .  A
C763        C768   1.400       .  A
C763       Br770   1.915       .  S
C764        C765   1.408       .  A
C765       C1598   1.407   1_554  A
C765       Br772   1.932       .  S
C766        C767   1.414       .  A
C766       C1597   1.407       .  A
C766       Br771   1.920       .  S
C767       C1600   1.407       .  A
C768       C1599   1.407       .  A
C768       Br769   1.934       .  S
C773        C774   1.410       .  A
C773        C778   1.408       .  A
C773       Br780   1.913       .  S
C774        C775   1.411       .  A
C775        C776   1.418       .  A
C775       Br782   1.921       .  S
C776        C777   1.414       .  A
C776       Br781   1.925       .  S
C777        C778   1.409       .  A
C778       Br779   1.929       .  S
C783        C784   1.413       .  A
C783        C788   1.411       .  A
C783       Br790   1.929       .  S
C784        C785   1.411       .  A
C785        C786   1.407       .  A
C785       Br792   1.926       .  S
C786        C787   1.407       .  A
C786       Br791   1.929       .  S
C787        C788   1.410       .  A
C788       Br789   1.930       .  S
C793        C794   1.412       .  A
C793        C798   1.410       .  A
C793       Br800   1.926       .  S
C794        C795   1.406       .  A
C795        C796   1.412       .  A
C795       Br802   1.931       .  S
C796        C797   1.420       .  A
C796       Br801   1.927       .  S
C797        C798   1.418       .  A
C798       Br799   1.936       .  S
C803        C804   1.418       .  A
C803        C808   1.407       .  A
C803       Br810   1.931       .  S
C804        C805   1.413       .  A
C805        C806   1.414       .  A
C805       Br812   1.931       .  S
C806        C807   1.414       .  A
C806       Br811   1.931       .  S
C807        C808   1.408       .  A
C808       Br809   1.934       .  S
C813        C814   1.408       .  A
C813       C1650   1.415       .  A
C813       Br820   1.925       .  S
C814        C815   1.411       .  A
C815        C816   1.424       .  A
C815       Br822   1.923       .  S
C816       C1649   1.424       .  A
C816       Br821   1.931       .  S
C817        C818   1.427   1_554  A
C817       C1648   1.424       .  A
C818       C1645   1.415       .  A
C818       Br819   1.939   1_556  S
C823        C824   1.407       .  A
C823        C828   1.413       .  A
C823       Br830   1.933       .  S
C824        C825   1.407       .  A
C825        C826   1.413       .  A
C825       Br832   1.921       .  S
C826        C827   1.414       .  A
C826       Br831   1.928       .  S
C827        C828   1.419       .  A
C828       Br829   1.920       .  S
O833       Cr851   2.030       .  S
O833        C841   1.270       .  A
O834       Cr851   2.004       .  S
O834        C835   1.268       .  A
C835        O836   1.260       .  A
C835       C1636   1.490       .  S
O836       Cr852   1.984       .  S
O837       Cr852   2.001       .  S
O837        C838   1.262       .  A
C838        O839   1.254       .  A
C838       C1616   1.480       .  S
O839       Cr853   1.981       .  S
O840       Cr853   2.008       .  S
O840        C841   1.268       .  A
C841       C1646   1.506       .  S
O842       Cr851   2.018       .  S
O842        C850   1.264       .  A
O843       Cr851   2.008       .  S
O843        C844   1.262       .  A
C844        O845   1.260       .  A
C844       C1656   1.486       .  S
O845       Cr852   1.985       .  S
O846       Cr852   1.974       .  S
O846        C847   1.261       .  A
C847        O848   1.273       .  A
C847       C1626   1.480       .  S
O848       Cr853   2.012       .  S
O849       Cr853   2.003       .  S
O849        C850   1.260       .  A
C850       C1606   1.495       .  S
Cr851       O854   1.792       .  S
Cr852       O854   1.786       .  S
Cr853       O854   1.789       .  S
O855       Cr873   2.021       .  S
O855        C863   1.270       .  A
O856       Cr873   1.986       .  S
O856        C857   1.264       .  A
C857        O858   1.272       .  A
C857       C1659   1.498       .  S
O858       Cr874   2.027       .  S
O859       Cr874   1.952       .  S
O859        C860   1.247       .  A
C860        O861   1.263       .  A
C860       C1586   1.474       .  S
O861       Cr875   2.012       .  S
O862       Cr875   1.968       .  S
O862        C863   1.259       .  A
C863       C1576   1.476       .  S
O864       Cr873   2.019       .  S
O864        C872   1.269       .  A
O865       Cr873   2.030       .  S
O865        C866   1.267       .  A
C866        O867   1.253       .  A
C866       C1569   1.479       .  S
O867       Cr874   1.962       .  S
O868       Cr874   2.022       .  S
O868        C869   1.270       .  A
C869        O870   1.260       .  A
C869       C1596   1.476       .  S
O870       Cr875   1.961       .  S
O871       Cr875   2.015       .  S
O871        C872   1.265       .  A
C872       C1649   1.521       .  S
Cr873       O876   1.774       .  S
Cr874       O876   1.771       .  S
Cr875       O876   1.766       .  S
O877       Cr895   2.031       .  S
O877        C885   1.273       .  A
O878       Cr895   2.010       .  S
O878        C879   1.272       .  A
C879        O880   1.260       .  A
C879       C1589   1.487       .  S
O880       Cr896   1.976       .  S
O881       Cr896   1.997       .  S
O881        C882   1.258       .  A
C882        O883   1.248       .  A
C882       C1529   1.470       .  S
O883       Cr897   1.963       .  S
O884       Cr897   1.991       .  S
O884        C885   1.267       .  A
C885       C1546   1.491       .  S
O886       Cr895   2.064   1_455  S
O886        C894   1.268       .  A
O887       Cr895   1.990       .  S
O887        C888   1.258       .  A
C888        O889   1.260       .  A
C888       C1556   1.473       .  S
O889       Cr896   1.985       .  S
O890       Cr896   1.979       .  S
O890        C891   1.263       .  A
C891        O892   1.272       .  A
C891       C1539   1.476       .  S
O892       Cr897   2.018       .  S
O893       Cr897   1.975   1_455  S
O893        C894   1.243       .  A
C894       C1519   1.516       .  S
Cr895       O898   1.782       .  S
Cr896       O898   1.776       .  S
Cr897       O898   1.770       .  S
O899       Cr917   2.041       .  S
O899        C907   1.275       .  A
O900       Cr917   1.966       .  S
O900        C901   1.261       .  A
C901        O902   1.268       .  A
C901       C1559   1.484       .  S
O902       Cr918   2.016       .  S
O903       Cr918   1.985       .  S
O903        C904   1.257       .  A
C904        O905   1.261       .  A
C904       C1639   1.484       .  S
O905       Cr919   2.002       .  S
O906       Cr919   1.969       .  S
O906        C907   1.260       .  A
C907       C1509   1.482       .  S
O908       Cr917   2.014       .  S
O908        C916   1.265       .  A
O909       Cr917   2.032   1_455  S
O909        C910   1.267       .  A
C910        O911   1.255       .  A
C910       C1496   1.483       .  S
O911       Cr918   1.957   1_455  S
O912       Cr918   2.020       .  S
O912        C913   1.269       .  A
C913        O914   1.262       .  A
C913       C1599   1.481   1_556  S
O914       Cr919   1.960       .  S
O915       Cr919   2.009       .  S
O915        C916   1.262       .  A
Cr917       O920   1.776       .  S
Cr918       O920   1.772       .  S
Cr919       O920   1.764       .  S
O921       Cr939   2.043   1_545  S
O921        C929   1.277       .  A
O922       Cr939   1.977       .  S
O922        C923   1.262       .  A
C923        O924   1.272       .  A
C923       C1489   1.498       .  S
O924       Cr940   2.029   1_565  S
O925       Cr940   1.975       .  S
O925        C926   1.253       .  A
C926        O927   1.257       .  A
C926       C1459   1.472       .  S
O927       Cr941   1.999       .  S
O928       Cr941   1.943       .  S
O928        C929   1.253       .  A
C929       C1526   1.467       .  S
O930       Cr939   2.009       .  S
O930        C938   1.263   1_565  A
O931       Cr939   2.036       .  S
O931        C932   1.271       .  A
C932        O933   1.257       .  A
C932       C1449   1.490       .  S
O933       Cr940   1.964   1_565  S
O934       Cr940   2.035       .  S
O934        C935   1.272       .  A
C935        O936   1.255       .  A
C935       C1466   1.468       .  S
O936       Cr941   1.951       .  S
O937       Cr941   2.005       .  S
O937        C938   1.259       .  A
C938       C1476   1.505       .  S
Cr939       O942   1.765   1_565  S
Cr940       O942   1.767       .  S
Cr941       O942   1.759       .  S
O943       Cr961   1.978       .  S
O943        C951   1.260   1_565  A
O944       Cr961   2.034   1_545  S
O944        C945   1.271       .  A
C945        O946   1.261       .  A
C945       C1436   1.509       .  S
O946       Cr962   1.980       .  S
O947       Cr962   2.011       .  S
O947        C948   1.261       .  A
C948        O949   1.257       .  A
C948       C1506   1.505       .  S
O949       Cr963   1.982       .  S
O950       Cr963   2.019   1_565  S
O950        C951   1.268   1_565  A
C951       C1479   1.490       .  S
O952       Cr961   2.037       .  S
O952        C960   1.269       .  A
O953       Cr961   1.994       .  S
O953        C954   1.261   1_565  A
C954        O955   1.267       .  A
C954       C1486   1.496   1_545  S
O955       Cr962   2.016       .  S
O956       Cr962   1.979       .  S
O956        C957   1.265       .  A
C957        O958   1.271       .  A
C957       C1536   1.500       .  S
O958       Cr963   2.019       .  S
O959       Cr963   1.959   1_565  S
O959        C960   1.256       .  A
C960       C1426   1.498       .  S
Cr961       O964   1.785   1_565  S
Cr962       O964   1.774       .  S
Cr963       O964   1.778       .  S
O965       Cr983   2.045       .  S
O965        C973   1.278       .  A
O966       Cr983   1.967       .  S
O966        C967   1.262       .  A
C967        O968   1.275       .  A
C967       C1416   1.492       .  S
O968       Cr984   2.035       .  S
O969       Cr984   1.982       .  S
O969        C970   1.257       .  A
C970        O971   1.263       .  A
C970       C1439   1.488       .  S
O971       Cr985   2.033       .  S
O972       Cr985   1.954       .  S
O972        C973   1.257       .  A
C973       C1619   1.476       .  S
O974       Cr983   2.024       .  S
O974        C982   1.266       .  A
O975       Cr983   2.035       .  S
O975        C976   1.270       .  A
C976        O977   1.259       .  A
C976       C1396   1.491       .  S
O977       Cr984   1.976       .  S
O978       Cr984   2.046       .  S
O978        C979   1.271       .  A
C979        O980   1.243       .  A
C979       C1469   1.471   1_556  S
O980       Cr985   1.932       .  S
O981       Cr985   2.023       .  S
O981        C982   1.264       .  A
Cr983       O986   1.768       .  S
Cr984       O986   1.781       .  S
Cr985       O986   1.754       .  S
O987      Cr1005   1.980       .  S
O987        C995   1.257       .  A
O988      Cr1005   2.014       .  S
O988        C989   1.268       .  A
C989        O990   1.257       .  A
C989       C1456   1.506       .  S
O990      Cr1006   1.964       .  S
O991      Cr1006   2.003       .  S
O991        C992   1.260       .  A
C992        O993   1.258       .  A
C992       C1579   1.508       .  S
O993      Cr1007   1.987       .  S
O994      Cr1007   2.046       .  S
O994        C995   1.271       .  A
C995       C1406   1.528       .  S
O996      Cr1005   2.026       .  S
O996       C1004   1.270       .  A
O997      Cr1005   1.992       .  S
O997        C998   1.262       .  A
C998        O999   1.263       .  A
C998       C1419   1.493       .  S
O999      Cr1006   2.006       .  S
O1000     Cr1006   1.971       .  S
O1000      C1001   1.262       .  A
C1001      O1002   1.275       .  A
C1001      C1629   1.497       .  S
O1002     Cr1007   2.036       .  S
O1003     Cr1007   1.953       .  S
O1003      C1004   1.256       .  A
C1004      C1386   1.480       .  S
Cr1005     O1008   1.767       .  S
Cr1006     O1008   1.768       .  S
Cr1007     O1008   1.770       .  S
O1009     Cr1027   2.005       .  S
O1009      C1017   1.272       .  A
O1010     Cr1027   2.020       .  S
O1010      C1011   1.266       .  A
C1011      O1012   1.262       .  A
C1011      C1359   1.491       .  S
O1012     Cr1028   1.981       .  S
O1013     Cr1028   1.976       .  S
O1013      C1014   1.255       .  A
C1014      O1015   1.263       .  A
C1014      C1339   1.484       .  S
O1015     Cr1029   2.009       .  S
O1016     Cr1029   1.997       .  S
O1016      C1017   1.265       .  A
C1017      C1376   1.500       .  S
O1018     Cr1027   1.999       .  S
O1018      C1026   1.258       .  A
O1019     Cr1027   2.050   1_545  S
O1019      C1020   1.272       .  A
C1020      O1021   1.253       .  A
C1020      C1516   1.517       .  S
O1021     Cr1028   1.989   1_545  S
O1022     Cr1028   1.996       .  S
O1022      C1023   1.265       .  A
C1023      O1024   1.266       .  A
C1023      C1349   1.474       .  S
O1024     Cr1029   1.995       .  S
O1025     Cr1029   2.012       .  S
O1025      C1026   1.265       .  A
C1026      C1366   1.495       .  S
Cr1027     O1030   1.779       .  S
Cr1028     O1030   1.769       .  S
Cr1029     O1030   1.780       .  S
O1031     Cr1049   1.958       .  S
O1031      C1039   1.261       .  A
O1032     Cr1049   2.035       .  S
O1032      C1033   1.274       .  A
C1033      O1034   1.256       .  A
C1033      C1306   1.506       .  S
O1034     Cr1050   1.965       .  S
O1035     Cr1050   2.013       .  S
O1035      C1036   1.259       .  A
C1036      O1037   1.256       .  A
C1036      C1316   1.484       .  S
O1037     Cr1051   1.988       .  S
O1038     Cr1051   2.045       .  S
O1038      C1039   1.279       .  A
C1039      C1369   1.497       .  S
O1040     Cr1049   2.031   1_545  S
O1040      C1048   1.266       .  A
O1041     Cr1049   2.001       .  S
O1041      C1042   1.264       .  A
C1042      O1043   1.264       .  A
O1043     Cr1050   2.007       .  S
O1044     Cr1050   1.939       .  S
O1044      C1045   1.249       .  A
C1045      O1046   1.274       .  A
C1045      C1329   1.472       .  S
O1046     Cr1051   2.041       .  S
O1047     Cr1051   1.968   1_545  S
O1047      C1048   1.254       .  A
C1048      C1399   1.485       .  S
Cr1049     O1052   1.766       .  S
Cr1050     O1052   1.753       .  S
Cr1051     O1052   1.768       .  S
O1053     Cr1071   2.031       .  S
O1053      C1061   1.274       .  A
O1054     Cr1071   1.985       .  S
O1054      C1055   1.263       .  A
C1055      O1056   1.270       .  A
C1055      C1296   1.500       .  S
O1056     Cr1072   2.024       .  S
O1057     Cr1072   1.981       .  S
O1057      C1058   1.255       .  A
C1058      O1059   1.263       .  A
C1058      C1266   1.493       .  S
O1059     Cr1073   2.014       .  S
O1060     Cr1073   1.979       .  S
O1060      C1061   1.264       .  A
C1061      C1319   1.492       .  S
O1062     Cr1071   2.019       .  S
O1062      C1070   1.268       .  A
O1063     Cr1071   2.040       .  S
O1063      C1064   1.270       .  A
C1064      O1065   1.255       .  A
C1064      C1609   1.492       .  S
O1065     Cr1072   1.957       .  S
O1066     Cr1072   2.027       .  S
O1066      C1067   1.272       .  A
C1067      O1068   1.263       .  A
C1067      C1279   1.495       .  S
O1068     Cr1073   1.973       .  S
O1069     Cr1073   2.007       .  S
O1069      C1070   1.262       .  A
C1070      C1289   1.509       .  S
Cr1071     O1074   1.780       .  S
Cr1072     O1074   1.776       .  S
Cr1073     O1074   1.770       .  S
O1075     Cr1093   1.969       .  S
O1075      C1083   1.259       .  A
O1076     Cr1093   2.039       .  S
O1076      C1077   1.278       .  A
C1077      O1078   1.258       .  A
C1077      C1256   1.503       .  S
O1078     Cr1094   1.940       .  S
O1079     Cr1094   2.038       .  S
O1079      C1080   1.269       .  A
C1080      O1081   1.256       .  A
C1080      C1379   1.509       .  S
O1081     Cr1095   1.973       .  S
O1082     Cr1095   2.043       .  S
O1082      C1083   1.274       .  A
C1083      C1286   1.503       .  S
O1084     Cr1093   2.034       .  S
O1084      C1092   1.273       .  A
O1085     Cr1093   2.009       .  S
O1085      C1086   1.261       .  A
C1086      O1087   1.256       .  A
C1086      C1299   1.498       .  S
O1087     Cr1094   1.989       .  S
O1088     Cr1094   1.951       .  S
O1088      C1089   1.244       .  A
C1089      O1090   1.273       .  A
C1089      C1326   1.477       .  S
O1090     Cr1095   2.056       .  S
O1091     Cr1095   1.964       .  S
O1091      C1092   1.257       .  A
C1092      C1446   1.493       .  S
Cr1093     O1096   1.768       .  S
Cr1094     O1096   1.752       .  S
Cr1095     O1096   1.782       .  S
O1097     Cr1115   1.995       .  S
O1097      C1105   1.263       .  A
O1098     Cr1115   2.042   1_455  S
O1098      C1099   1.279       .  A
C1099      O1100   1.261       .  A
C1099      C1336   1.481       .  S
O1100     Cr1116   1.968       .  S
O1101     Cr1116   1.988       .  S
O1101      C1102   1.253       .  A
C1102      O1103   1.256       .  A
C1102      C1216   1.483       .  S
O1103     Cr1117   1.990       .  S
O1104     Cr1117   2.020   1_655  S
O1104      C1105   1.268       .  A
C1105      C1236   1.507       .  S
O1106     Cr1115   2.029       .  S
O1106      C1114   1.271       .  A
O1107     Cr1115   2.029       .  S
O1107      C1108   1.264   1_655  A
C1108      O1109   1.253       .  A
C1108      C1249   1.525       .  S
O1109     Cr1116   1.996       .  S
O1110     Cr1116   1.987       .  S
O1110      C1111   1.269       .  A
C1111      O1112   1.276       .  A
C1111      C1226   1.496       .  S
O1112     Cr1117   2.033       .  S
O1113     Cr1117   1.962   1_655  S
O1113      C1114   1.258       .  A
C1114      C1566   1.480       .  S
Cr1115     O1118   1.776   1_655  S
Cr1116     O1118   1.774       .  S
Cr1117     O1118   1.768       .  S
O1119     Cr1137   2.039   1_455  S
O1119      C1127   1.277       .  A
O1120     Cr1137   1.979       .  S
O1120      C1121   1.259       .  A
C1121      O1122   1.270       .  A
C1121      C1246   1.498       .  S
O1122     Cr1138   2.032   1_655  S
O1123     Cr1138   1.967       .  S
O1123      C1124   1.250       .  A
C1124      O1125   1.263       .  A
C1124      C1309   1.483       .  S
O1125     Cr1139   2.021       .  S
O1126     Cr1139   1.962       .  S
O1126      C1127   1.261       .  A
C1127      C1206   1.484       .  S
O1128     Cr1137   2.005       .  S
O1128      C1136   1.262       .  A
O1129     Cr1137   2.043       .  S
O1129      C1130   1.271       .  A
C1130      O1131   1.254       .  A
C1130      C1429   1.494       .  S
O1131     Cr1138   1.946   1_655  S
O1132     Cr1138   2.047       .  S
O1132      C1133   1.277       .  A
C1133      O1134   1.260       .  A
C1133      C1346   1.503       .  S
O1134     Cr1139   1.957       .  S
O1135     Cr1139   2.014       .  S
O1135      C1136   1.264   1_455  A
C1136      C1239   1.504       .  S
Cr1137     O1140   1.783   1_655  S
Cr1138     O1140   1.779       .  S
Cr1139     O1140   1.776       .  S
O1141     Cr1159   2.009       .  S
O1141      C1149   1.271       .  A
O1142     Cr1159   1.979       .  S
O1142      C1143   1.261       .  A
C1143      O1144   1.274       .  A
C1143      C1196   1.501       .  S
O1144     Cr1160   2.036       .  S
O1145     Cr1160   1.966       .  S
O1145      C1146   1.249       .  A
C1146      O1147   1.257       .  A
C1146      C1259   1.481       .  S
O1147     Cr1161   2.002       .  S
O1148     Cr1161   1.966       .  S
O1148      C1149   1.263       .  A
C1149      C1219   1.476       .  S
O1150     Cr1159   2.018       .  S
O1150      C1158   1.265       .  A
O1151     Cr1159   2.016       .  S
O1151      C1152   1.263       .  A
C1152      O1153   1.257       .  A
C1152      C1389   1.478       .  S
O1153     Cr1160   1.960       .  S
O1154     Cr1160   2.052       .  S
O1154      C1155   1.279       .  A
C1155      O1156   1.262       .  A
C1155      C1276   1.499       .  S
O1156     Cr1161   1.967       .  S
O1157     Cr1161   1.995       .  S
O1157      C1158   1.257       .  A
C1158      C1189   1.500       .  S
Cr1159     O1162   1.781       .  S
Cr1160     O1162   1.770       .  S
Cr1161     O1162   1.773       .  S
O1163     Cr1181   2.030       .  S
O1163      C1171   1.271       .  A
O1164     Cr1181   2.005       .  S
O1164      C1165   1.269       .  A
C1165      O1166   1.260       .  A
C1165      C1269   1.497       .  S
O1166     Cr1182   1.988       .  S
O1167     Cr1182   1.997       .  S
O1167      C1168   1.258       .  A
C1168      O1169   1.256       .  A
C1168      C1209   1.480       .  S
O1169     Cr1183   1.992       .  S
O1170     Cr1183   2.000       .  S
O1170      C1171   1.267       .  A
C1171      C1186   1.497       .  S
O1172     Cr1181   2.006       .  S
O1172      C1180   1.261       .  A
O1173     Cr1181   2.007       .  S
O1173      C1174   1.262       .  A
C1174      O1175   1.261       .  A
O1175     Cr1182   1.988       .  S
O1176     Cr1182   1.987       .  S
O1176      C1177   1.264       .  A
C1177      O1178   1.271       .  A
C1177      C1229   1.485       .  S
O1178     Cr1183   2.011       .  S
O1179     Cr1183   2.004       .  S
O1179      C1180   1.260       .  A
C1180      C1499   1.488       .  S
Cr1181     O1184   1.793       .  S
Cr1182     O1184   1.784       .  S
Cr1183     O1184   1.796       .  S
C1185      C1186   1.405       .  A
C1185      C1190   1.405       .  A
C1185     Br1192   1.912       .  S
C1186      C1187   1.412       .  A
C1187      C1188   1.421       .  A
C1187     Br1194   1.923       .  S
C1188      C1189   1.418       .  A
C1188     Br1193   1.929       .  S
C1189      C1190   1.420       .  A
C1190     Br1191   1.942       .  S
C1195      C1196   1.416       .  A
C1195      C1200   1.411       .  A
C1195     Br1202   1.920       .  S
C1196      C1197   1.417       .  A
C1197      C1198   1.417       .  A
C1197     Br1204   1.927       .  S
C1198      C1199   1.410       .  A
C1198     Br1203   1.925       .  S
C1199      C1200   1.408       .  A
C1205      C1206   1.409       .  A
C1205      C1210   1.403       .  A
C1205     Br1212   1.926       .  S
C1206      C1207   1.417       .  A
C1207      C1208   1.412       .  A
C1207     Br1214   1.931       .  S
C1208      C1209   1.407       .  A
C1208     Br1213   1.921       .  S
C1209      C1210   1.406       .  A
C1210     Br1211   1.921       .  S
C1215      C1216   1.419       .  A
C1215      C1220   1.406       .  A
C1215     Br1222   1.937       .  S
C1216      C1217   1.413       .  A
C1217      C1218   1.403       .  A
C1217     Br1224   1.932       .  S
C1218      C1219   1.412       .  A
C1218     Br1223   1.935       .  S
C1219      C1220   1.410       .  A
C1220     Br1221   1.934       .  S
C1225      C1226   1.414       .  A
C1225     Br1232   1.927   1_455  S
C1226      C1227   1.415       .  A
C1227      C1228   1.406       .  A
C1227     Br1234   1.930       .  S
C1228     Br1233   1.928       .  S
C1229      C1230   1.412       .  A
C1230     Br1231   1.929       .  S
C1235      C1236   1.418       .  A
C1235      C1240   1.419       .  A
C1235     Br1242   1.929       .  S
C1236      C1237   1.416   1_655  A
C1237      C1238   1.414       .  A
C1237     Br1244   1.924       .  S
C1238      C1239   1.413   1_455  A
C1238     Br1243   1.932       .  S
C1239      C1240   1.413       .  A
C1240     Br1241   1.928       .  S
C1245      C1246   1.406   1_455  A
C1245      C1250   1.414       .  A
C1245     Br1252   1.938       .  S
C1246      C1247   1.408       .  A
C1247     Br1254   1.924       .  S
C1248      C1249   1.427   1_655  A
C1248     Br1253   1.931       .  S
C1255      C1256   1.424       .  A
C1255      C1260   1.410       .  A
C1255     Br1262   1.939       .  S
C1256      C1257   1.431       .  A
C1257      C1258   1.407       .  A
C1257     Br1264   1.945       .  S
C1258      C1259   1.406       .  A
C1258     Br1263   1.938       .  S
C1259      C1260   1.413       .  A
C1260     Br1261   1.940       .  S
C1265      C1266   1.419       .  A
C1265      C1270   1.416       .  A
C1265     Br1272   1.932       .  S
C1266      C1267   1.409       .  A
C1267      C1268   1.409       .  A
C1267     Br1274   1.935       .  S
C1268      C1269   1.418       .  A
C1268     Br1273   1.928       .  S
C1269      C1270   1.412       .  A
C1270     Br1271   1.931       .  S
C1275      C1276   1.416       .  A
C1275      C1280   1.411       .  A
C1275     Br1282   1.928       .  S
C1276      C1277   1.417       .  A
C1277      C1278   1.410       .  A
C1277     Br1284   1.917       .  S
C1278      C1279   1.410       .  A
C1278     Br1283   1.934       .  S
C1279      C1280   1.413       .  A
C1280     Br1281   1.924       .  S
C1285      C1286   1.411       .  A
C1285      C1290   1.425       .  A
C1285     Br1292   1.925       .  S
C1286      C1287   1.412       .  A
C1287      C1288   1.407       .  A
C1287     Br1294   1.924       .  S
C1288      C1289   1.420       .  A
C1288     Br1293   1.943       .  S
C1289      C1290   1.422       .  A
C1290     Br1291   1.928       .  S
C1295      C1296   1.414       .  A
C1295     Br1302   1.928       .  S
C1296      C1297   1.417       .  A
C1297     Br1304   1.931       .  S
C1298      C1299   1.413       .  A
C1298     Br1303   1.925       .  S
C1299      C1300   1.417       .  A
C1300     Br1301   1.936       .  S
C1305      C1306   1.431       .  A
C1305      C1310   1.412       .  A
C1305     Br1312   1.937       .  S
C1306      C1307   1.422       .  A
C1307      C1308   1.408       .  A
C1307     Br1314   1.940       .  S
C1308      C1309   1.409       .  A
C1308     Br1313   1.930       .  S
C1309      C1310   1.404       .  A
C1310     Br1311   1.934       .  S
C1315      C1316   1.412       .  A
C1315      C1320   1.409       .  A
C1315     Br1322   1.925       .  S
C1316      C1317   1.405       .  A
C1317      C1318   1.414       .  A
C1317     Br1324   1.929       .  S
C1318      C1319   1.419       .  A
C1318     Br1323   1.930       .  S
C1319      C1320   1.413       .  A
C1320     Br1321   1.934       .  S
C1325      C1326   1.419       .  A
C1325      C1330   1.394       .  A
C1325     Br1332   1.951       .  S
C1326      C1327   1.410       .  A
C1327      C1328   1.414       .  A
C1327     Br1334   1.923       .  S
C1335      C1336   1.412       .  A
C1335      C1340   1.414       .  A
C1335     Br1342   1.926       .  S
C1336      C1337   1.406       .  A
C1337      C1338   1.408       .  A
C1337     Br1344   1.929       .  S
C1338      C1339   1.412       .  A
C1338     Br1343   1.925       .  S
C1339      C1340   1.411       .  A
C1340     Br1341   1.930       .  S
C1345      C1346   1.419       .  A
C1345      C1350   1.411       .  A
C1345     Br1352   1.920       .  S
C1346      C1347   1.421       .  A
C1347      C1348   1.406       .  A
C1347     Br1354   1.932       .  S
C1348      C1349   1.404       .  A
C1348     Br1353   1.928       .  S
C1349      C1350   1.400       .  A
C1350     Br1351   1.919       .  S
C1355      C1356   1.410       .  A
C1355      C1360   1.410       .  A
C1355     Br1362   1.926       .  S
C1356      C1357   1.407       .  A
C1357      C1358   1.409       .  A
C1358      C1359   1.416       .  A
C1358     Br1363   1.932       .  S
C1359      C1360   1.418       .  A
C1360     Br1361   1.937       .  S
C1365      C1366   1.413       .  A
C1365      C1370   1.414       .  A
C1365     Br1372   1.921       .  S
C1366      C1367   1.407   1_565  A
C1367      C1368   1.413       .  A
C1367     Br1374   1.922       .  S
C1368      C1369   1.418   1_545  A
C1368     Br1373   1.932       .  S
C1369      C1370   1.414       .  A
C1370     Br1371   1.930       .  S
C1375      C1376   1.414       .  A
C1375      C1380   1.415       .  A
C1375     Br1382   1.932       .  S
C1376      C1377   1.406       .  A
C1377      C1378   1.407       .  A
C1377     Br1384   1.928       .  S
C1378      C1379   1.421       .  A
C1378     Br1383   1.925       .  S
C1379      C1380   1.424       .  A
C1380     Br1381   1.932       .  S
C1385      C1386   1.412       .  A
C1385      C1390   1.414       .  A
C1385     Br1392   1.929       .  S
C1386      C1387   1.411       .  A
C1387      C1388   1.399       .  A
C1387     Br1394   1.921       .  S
C1388      C1389   1.401       .  A
C1388     Br1393   1.922       .  S
C1389      C1390   1.410       .  A
C1390     Br1391   1.920       .  S
C1395      C1396   1.414       .  A
C1395      C1400   1.416       .  A
C1395     Br1402   1.924       .  S
C1396      C1397   1.410       .  A
C1397      C1398   1.407       .  A
C1397     Br1404   1.918   1_556  S
C1398      C1399   1.406       .  A
C1398     Br1403   1.923   1_556  S
C1399      C1400   1.410       .  A
C1400     Br1401   1.928       .  S
C1405      C1406   1.427       .  A
C1405      C1410   1.415       .  A
C1405     Br1412   1.941       .  S
C1406      C1407   1.427       .  A
C1407      C1408   1.425       .  A
C1407     Br1414   1.929       .  S
C1408      C1409   1.411       .  A
C1408     Br1413   1.928       .  S
C1409      C1410   1.410       .  A
C1415      C1416   1.414       .  A
C1415      C1420   1.411       .  A
C1415     Br1422   1.932       .  S
C1416      C1417   1.414       .  A
C1417      C1418   1.413       .  A
C1417     Br1424   1.927       .  S
C1418      C1419   1.416       .  A
C1418     Br1423   1.934       .  S
C1419      C1420   1.410       .  A
C1420     Br1421   1.923       .  S
C1425      C1426   1.414       .  A
C1425      C1430   1.404       .  A
C1425     Br1432   1.930       .  S
C1426      C1427   1.417       .  A
C1427      C1428   1.422       .  A
C1427     Br1434   1.924       .  S
C1428      C1429   1.412       .  A
C1428     Br1433   1.924       .  S
C1429      C1430   1.410       .  A
C1430     Br1431   1.932       .  S
C1435      C1436   1.426       .  A
C1435      C1440   1.414       .  A
C1435     Br1442   1.934       .  S
C1436      C1437   1.423       .  A
C1437      C1438   1.414       .  A
C1437     Br1444   1.937       .  S
C1438      C1439   1.410       .  A
C1438     Br1443   1.930       .  S
C1439      C1440   1.404       .  A
C1440     Br1441   1.930       .  S
C1445      C1446   1.413       .  A
C1445      C1450   1.415       .  A
C1445     Br1452   1.925       .  S
C1446      C1447   1.417       .  A
C1447      C1448   1.409       .  A
C1447     Br1454   1.931       .  S
C1448      C1449   1.408       .  A
C1448     Br1453   1.930       .  S
C1449      C1450   1.411       .  A
C1450     Br1451   1.924       .  S
C1455      C1456   1.432       .  A
C1455      C1460   1.409       .  A
C1455     Br1462   1.940       .  S
C1456      C1457   1.429       .  A
C1457      C1458   1.408       .  A
C1457     Br1464   1.940       .  S
C1458      C1459   1.404       .  A
C1458     Br1463   1.938       .  S
C1459      C1460   1.403       .  A
C1460     Br1461   1.937       .  S
C1465      C1466   1.409       .  A
C1465      C1470   1.412       .  A
C1465     Br1472   1.921       .  S
C1466      C1467   1.408       .  A
C1467      C1468   1.391       .  A
C1467     Br1474   1.940       .  S
C1470     Br1471   1.924       .  S
C1475      C1476   1.424       .  A
C1475     Br1482   1.931       .  S
C1477      C1478   1.416   1_554  A
C1477     Br1484   1.930       .  S
C1478      C1479   1.409   1_565  A
C1478     Br1483   1.924       .  S
C1479      C1480   1.409       .  A
C1480     Br1481   1.935       .  S
C1485      C1486   1.413       .  A
C1485      C1490   1.415       .  A
C1485     Br1492   1.927       .  S
C1486      C1487   1.413   1_565  A
C1487      C1488   1.411       .  A
C1487     Br1494   1.934       .  S
C1488      C1489   1.416   1_545  A
C1488     Br1493   1.926       .  S
C1489      C1490   1.416       .  A
C1490     Br1491   1.931       .  S
C1495      C1496   1.412       .  A
C1495      C1500   1.415       .  A
C1495     Br1502   1.925       .  S
C1496      C1497   1.404       .  A
C1497      C1498   1.404       .  A
C1497     Br1504   1.924   1_556  S
C1498      C1499   1.408       .  A
C1498     Br1503   1.912       .  S
C1499      C1500   1.411       .  A
C1500     Br1501   1.922       .  S
C1505      C1506   1.426       .  A
C1505      C1510   1.414       .  A
C1505     Br1512   1.937       .  S
C1506      C1507   1.421       .  A
C1507      C1508   1.411       .  A
C1507     Br1514   1.929       .  S
C1508      C1509   1.405       .  A
C1508     Br1513   1.932       .  S
C1509      C1510   1.407       .  A
C1510     Br1511   1.930       .  S
C1515      C1516   1.421       .  A
C1515      C1520   1.430       .  A
C1515     Br1522   1.928       .  S
C1516      C1517   1.427       .  A
C1517      C1518   1.406       .  A
C1517     Br1524   1.954       .  S
C1518      C1519   1.427       .  A
C1518     Br1523   1.954       .  S
C1519      C1520   1.419       .  A
C1520     Br1521   1.928       .  S
C1525      C1526   1.405       .  A
C1525      C1530   1.403       .  A
C1525     Br1532   1.931       .  S
C1526      C1527   1.411       .  A
C1527      C1528   1.409       .  A
C1527     Br1534   1.930       .  S
C1528      C1529   1.409       .  A
C1528     Br1533   1.930       .  S
C1529      C1530   1.411       .  A
C1530     Br1531   1.926       .  S
C1535      C1536   1.422       .  A
C1535      C1540   1.411       .  A
C1535     Br1542   1.935       .  S
C1536      C1537   1.420       .  A
C1537      C1538   1.410       .  A
C1537     Br1544   1.930       .  S
C1538      C1539   1.405       .  A
C1538     Br1543   1.928       .  S
C1539      C1540   1.404       .  A
C1540     Br1541   1.921       .  S
C1545      C1546   1.407       .  A
C1545      C1550   1.411       .  A
C1545     Br1552   1.931       .  S
C1546      C1547   1.410   1_655  A
C1547      C1548   1.419       .  A
C1547     Br1554   1.931       .  S
C1548      C1549   1.423   1_455  A
C1548     Br1553   1.930       .  S
C1549      C1550   1.426       .  A
C1550     Br1551   1.938       .  S
C1555      C1556   1.408       .  A
C1555      C1560   1.406       .  A
C1555     Br1562   1.930       .  S
C1556      C1557   1.404   1_655  A
C1557      C1558   1.408       .  A
C1557     Br1564   1.925       .  S
C1558      C1559   1.415   1_455  A
C1558     Br1563   1.930       .  S
C1559      C1560   1.414       .  A
C1560     Br1561   1.929       .  S
C1565      C1566   1.410       .  A
C1565      C1570   1.408       .  A
C1565     Br1572   1.928       .  S
C1566      C1567   1.409       .  A
C1567      C1568   1.412       .  A
C1567     Br1574   1.925       .  S
C1568      C1569   1.409       .  A
C1568     Br1573   1.926       .  S
C1569      C1570   1.409       .  A
C1570     Br1571   1.929       .  S
C1575      C1576   1.404       .  A
C1575      C1580   1.409       .  A
C1575     Br1582   1.937       .  S
C1576      C1577   1.405       .  A
C1577      C1578   1.411       .  A
C1577     Br1584   1.937       .  S
C1578      C1579   1.427       .  A
C1578     Br1583   1.933       .  S
C1579      C1580   1.431       .  A
C1580     Br1581   1.940       .  S
C1585      C1586   1.400       .  A
C1585      C1590   1.402       .  A
C1585     Br1592   1.935       .  S
C1586      C1587   1.416       .  A
C1587      C1588   1.411       .  A
C1587     Br1594   1.936       .  S
C1588      C1589   1.412       .  A
C1588     Br1593   1.930       .  S
C1589      C1590   1.422       .  A
C1590     Br1591   1.925       .  S
C1595      C1596   1.411       .  A
C1595      C1600   1.400       .  A
C1595     Br1602   1.915       .  S
C1596      C1597   1.408       .  A
C1597     Br1604   1.932       .  S
C1598      C1599   1.414   1_556  A
C1598     Br1603   1.920       .  S
C1600     Br1601   1.934       .  S
C1605      C1606   1.410       .  A
C1605      C1610   1.408       .  A
C1605     Br1612   1.913       .  S
C1606      C1607   1.411       .  A
C1607      C1608   1.418       .  A
C1607     Br1614   1.921       .  S
C1608      C1609   1.414       .  A
C1608     Br1613   1.925       .  S
C1609      C1610   1.409       .  A
C1610     Br1611   1.929       .  S
C1615      C1616   1.413       .  A
C1615      C1620   1.411       .  A
C1615     Br1622   1.929       .  S
C1616      C1617   1.411       .  A
C1617      C1618   1.407       .  A
C1617     Br1624   1.926       .  S
C1618      C1619   1.407       .  A
C1618     Br1623   1.929       .  S
C1619      C1620   1.410       .  A
C1620     Br1621   1.930       .  S
C1625      C1626   1.412       .  A
C1625      C1630   1.410       .  A
C1625     Br1632   1.927       .  S
C1626      C1627   1.406       .  A
C1627      C1628   1.412       .  A
C1627     Br1634   1.931       .  S
C1628      C1629   1.420       .  A
C1628     Br1633   1.927       .  S
C1629      C1630   1.418       .  A
C1630     Br1631   1.936       .  S
C1635      C1636   1.418       .  A
C1635      C1640   1.407       .  A
C1635     Br1642   1.931       .  S
C1636      C1637   1.413       .  A
C1637      C1638   1.413       .  A
C1637     Br1644   1.931       .  S
C1638      C1639   1.414       .  A
C1638     Br1643   1.931       .  S
C1639      C1640   1.408       .  A
C1640     Br1641   1.934       .  S
C1645      C1646   1.408       .  A
C1645     Br1652   1.925       .  S
C1646      C1647   1.411       .  A
C1647      C1648   1.424   1_556  A
C1647     Br1654   1.923       .  S
C1648     Br1653   1.931       .  S
C1649      C1650   1.427       .  A
C1650     Br1651   1.939       .  S
C1655      C1656   1.407       .  A
C1655      C1660   1.413       .  A
C1655     Br1662   1.933       .  S
C1656      C1657   1.407       .  A
C1657      C1658   1.413       .  A
C1657     Br1664   1.921       .  S
C1658      C1659   1.414       .  A
C1658     Br1663   1.928       .  S
C1659      C1660   1.419       .  A
C1660     Br1661   1.920       .  S
