geometry optimzed in LAMMPS
_audit_creation_date              2020-12-01 
_audit_creation_method            'lammps2cif' 
_symmetry_space_group_name_H-M    'P1' 
_symmetry_Int_Tables_number       1 
_symmetry_cell_setting            triclinic 
loop_ 
_symmetry_equiv_pos_as_xyz 
  x,y,z 
_cell_length_a                    38.19505029 
_cell_length_b                    38.18501865955332 
_cell_length_c                    44.23450474269355 
_cell_angle_alpha                 89.52753455554367 
_cell_angle_beta                  91.00871076301077 
_cell_angle_gamma                 90.5644443952685 
loop_ 
_atom_site_label 
_atom_site_type_symbol 
_atom_site_fract_x 
_atom_site_fract_y 
_atom_site_fract_z 
_atom_site_charge 
O1          O  0.35404244  0.82061882  0.24090718    -0.82300
C2          C  0.33700005  0.88560300  0.13162308     0.97100
O3          O  0.31833345  0.86886398  0.15016288    -0.71400
O4          O  0.30706581  0.82329538  0.19338860    -0.75000
Al5        Al  0.32500361  0.87054020  0.19322117     1.49000
C6          C  0.32007308  0.79505056  0.18393544     0.92400
O7          O  0.42058649  0.81033311  0.17675607    -0.81200
O8          O  0.43905086  0.87545026  0.19419345    -0.74700
Al9        Al  0.38491964  0.81912026  0.20704817     1.90100
O10         O  0.40561739  0.84934539  0.14278568    -0.73800
O11         O  0.39148278  0.92313506  0.19521840    -0.73700
O12         O  0.36390533  0.90194683  0.14092715    -0.79300
O13         O  0.33409195  0.92118205  0.19361926    -0.77500
O14         O  0.36926226  0.85847830  0.19038625    -1.13700
O15         O  0.32847410  0.87189098  0.23612787    -0.72800
C16         C  0.33814535  0.84621475  0.25235489     0.97900
C17         C  0.42488133  0.82459568  0.15101599     0.94300
Al18       Al  0.39790402  0.88542276  0.16981185     1.55600
O19         O  0.35289303  0.79091810  0.18407922    -0.77500
C20         C  0.36261304  0.93802878  0.19821001     0.98400
C21         C  0.44211059  0.86260565  0.22054530     0.93300
O22         O  0.41801060  0.84387705  0.23157538    -0.82800
O23         O  0.42298648  0.82848474  0.40105103    -0.82300
C24         C  0.34794911  0.86766184  0.50464881     0.97100
O25         O  0.37820680  0.87826082  0.49739212    -0.71400
O26         O  0.42242478  0.82691087  0.48868157    -0.75000
Al27       Al  0.40897079  0.86690950  0.46533121     1.49000
C28         C  0.43602866  0.80032398  0.47709849     0.92400
O29         O  0.35414822  0.77592500  0.44331263    -0.81200
O30         O  0.33459832  0.86548018  0.39978557    -0.74700
Al31       Al  0.38838964  0.80494219  0.42377260     1.90100
O32         O  0.31121747  0.81312123  0.43748938    -0.73800
O33         O  0.34335899  0.90806210  0.44737995    -0.73700
O34         O  0.32780789  0.85280680  0.48552663    -0.79300
O35         O  0.40024740  0.91039541  0.44486718    -0.77500
O36         O  0.37688065  0.84335278  0.44406593    -1.13700
O37         O  0.44608103  0.85966410  0.43778659    -0.72800
C38         C  0.44857145  0.84515291  0.41235693     0.97900
C39         C  0.32175144  0.78186862  0.43962470     0.94300
Al40       Al  0.33285230  0.85852723  0.44269956     1.55600
O41         O  0.42447381  0.78897102  0.45199739    -0.77500
C42         C  0.37126861  0.92596026  0.44521292     0.98400
C43         C  0.34183864  0.84132228  0.38149907     0.93300
O44         O  0.35703650  0.81379332  0.39061630    -0.82800
O45         O  0.34833769  0.19825853  0.16017411    -0.82300
C46         C  0.34742291  0.14497232  0.27524445     0.97100
O47         O  0.32618880  0.15760529  0.25596546    -0.71400
O48         O  0.30750440  0.19707280  0.21010871    -0.75000
Al49       Al  0.32951250  0.15249588  0.21371915     1.49000
C50         C  0.31908157  0.22668720  0.21830994     0.92400
O51         O  0.41990417  0.22449849  0.21746834    -0.81200
O52         O  0.44233437  0.15539929  0.20466690    -0.74700
Al53       Al  0.38260053  0.20745539  0.19192095     1.90100
O54         O  0.41968860  0.18828117  0.25597985    -0.73800
O55         O  0.39772236  0.10354512  0.21520675    -0.73700
O56         O  0.37765169  0.13528960  0.26775803    -0.79300
O57         O  0.34071538  0.10448856  0.21801901    -0.77500
O58         O  0.37315619  0.16900390  0.21345398    -1.13700
O59         O  0.33026075  0.14522002  0.17145390    -0.72800
C60         C  0.33745262  0.16831247  0.15194657     0.97900
C61         C  0.43153391  0.21538385  0.24316465     0.94300
Al62       Al  0.40662798  0.14731991  0.23423471     1.55600
O63         O  0.35101773  0.23451277  0.21499394    -0.77500
C64         C  0.36851798  0.08779651  0.21453146     0.98400
C65         C  0.44145925  0.16729418  0.17784891     0.93300
O66         O  0.41520863  0.18388727  0.16775609    -0.82800
O67         O  0.34480572  0.18582262  0.40843355    -0.82300
C68         C  0.34802851  0.14012666  0.02491344     0.97100
O69         O  0.32573470  0.15008739  0.50553265    -0.71400
O70         O  0.30420499  0.18673643  0.45854108    -0.75000
Al71       Al  0.32755110  0.14205268  0.46350995     1.49000
C72         C  0.31472359  0.21810311  0.46209826     0.92400
O73         O  0.41697194  0.21535879  0.46379660    -0.81200
O74         O  0.44044988  0.14651233  0.45253192    -0.74700
Al75       Al  0.37938864  0.19686451  0.43900280     1.90100
O76         O  0.41767451  0.18042122  0.50327544    -0.73800
O77         O  0.39692212  0.09434756  0.46387862    -0.73700
O78         O  0.37679698  0.12698532  0.01700849    -0.79300
O79         O  0.34019888  0.09312789  0.46868044    -0.77500
O80         O  0.37085109  0.15922275  0.46179567    -1.13700
O81         O  0.32685136  0.13304477  0.42156304    -0.72800
C82         C  0.33260481  0.15597460  0.40156744     0.97900
C83         C  0.42924043  0.20704812  0.48953944     0.94300
Al84       Al  0.40509644  0.13860278  0.48260231     1.55600
O85         O  0.34711476  0.22519193  0.46058608    -0.77500
C86         C  0.36839376  0.07745538  0.46302672     0.98400
C87         C  0.43922813  0.15745490  0.42541761     0.93300
O88         O  0.41225207  0.17268120  0.41509231    -0.82800
O89         O  0.58371827  0.82996793  0.10632699    -0.82300
C90         C  0.65668131  0.88169343  0.00507581     0.97100
O91         O  0.62552369  0.88881649  0.01208095    -0.71400
O92         O  0.58378512  0.83393504  0.01854791    -0.75000
Al93       Al  0.59494260  0.87331360  0.04344666     1.49000
C94         C  0.57149527  0.80570733  0.02914752     0.92400
O95         O  0.65349966  0.78570150  0.06126764    -0.81200
O96         O  0.66842936  0.87197277  0.11078563    -0.74700
Al97       Al  0.61857709  0.81024218  0.08274572     1.90100
O98         O  0.69437250  0.82515477  0.06995332    -0.73800
O99         O  0.65831094  0.91717894  0.06488765    -0.73700
O100        O  0.67739295  0.86768278  0.02422769    -0.79300
O101        O  0.60123290  0.91624946  0.06519725    -0.77500
O102        O  0.62806375  0.85087440  0.06428761    -1.13700
O103        O  0.55791204  0.86109832  0.07064315    -0.72800
C104        C  0.55677035  0.84435442  0.09548132     0.97900
C105        C  0.68550012  0.79377591  0.06483405     0.94300
Al106      Al  0.67112180  0.86896531  0.06721447     1.55600
O107        O  0.58318558  0.79395055  0.05409458    -0.77500
C108        C  0.62977798  0.93321424  0.06676299     0.98400
C109        C  0.66245440  0.84578291  0.12788312     0.93300
O110        O  0.64969423  0.81793025  0.11671603    -0.82800
O111        O  0.65966158  0.82330510  0.27305882    -0.82300
C112        C  0.67412469  0.89823989  0.37719512     0.97100
O113        O  0.69361358  0.87991586  0.36088068    -0.71400
O114        O  0.70588456  0.82999950  0.32185686    -0.75000
Al115      Al  0.68843460  0.87734199  0.31747392     1.49000
C116        C  0.69181089  0.80288494  0.33351616     0.92400
O117        O  0.59122860  0.81879464  0.33704792    -0.81200
O118        O  0.57430456  0.88191227  0.31298686    -0.74700
Al119      Al  0.62796007  0.82460128  0.30679195     1.90100
O120        O  0.60487669  0.86166301  0.36745167    -0.73800
O121        O  0.62309793  0.92840207  0.30816044    -0.73700
O122        O  0.64838517  0.91390442  0.36515827    -0.79300
O123        O  0.68022941  0.92796282  0.31301377    -0.77500
O124        O  0.64375609  0.86537350  0.32029842    -1.13700
O125        O  0.68553203  0.87498700  0.27423129    -0.72800
C126        C  0.67403253  0.84895481  0.25935052     0.97900
C127        C  0.58528981  0.83626858  0.36073980     0.94300
Al128      Al  0.61484137  0.89434147  0.33721578     1.55600
O129        O  0.65888212  0.79915875  0.33286337    -0.77500
C130        C  0.65199986  0.94401850  0.30637061     0.98400
C131        C  0.57157904  0.86596014  0.28812226     0.93300
O132        O  0.59574538  0.84622834  0.27961179    -0.82800
O133        O  0.65532490  0.20164220  0.11052755    -0.82300
C134        C  0.64943524  0.14462481  0.49917994     0.97100
O135        O  0.67075436  0.15471232  0.01801879    -0.71400
O136        O  0.69115322  0.19801632  0.05928100    -0.75000
Al137      Al  0.66955315  0.15184156  0.06015874     1.49000
C138        C  0.67819116  0.22640065  0.04902333     0.92400
O139        O  0.57730206  0.22141811  0.05790705    -0.81200
O140        O  0.55862886  0.15285168  0.07440938    -0.74700
Al141      Al  0.61775338  0.20703898  0.08105679     1.90100
O142        O  0.57716026  0.18501734  0.02027084    -0.73800
O143        O  0.60092978  0.10154446  0.06205424    -0.73700
O144        O  0.61832346  0.13324735  0.00740614    -0.79300
O145        O  0.65787188  0.10250870  0.05939550    -0.77500
O146        O  0.62605410  0.16756893  0.06117359    -1.13700
O147        O  0.67124046  0.14759363  0.10292914    -0.72800
C148        C  0.66602982  0.17254897  0.12074855     0.97900
C149        C  0.56470380  0.21133633  0.03293936     0.94300
Al150      Al  0.59154338  0.14487045  0.04255572     1.55600
O151        O  0.64641133  0.23328841  0.05379926    -0.77500
C152        C  0.62959456  0.08564100  0.06308843     0.98400
C153        C  0.56130505  0.16580793  0.10076374     0.93300
O154        O  0.58809566  0.18348753  0.10874944    -0.82800
O155        O  0.65385458  0.19936123  0.36670719    -0.82300
C156        C  0.65292114  0.15966810  0.24919250     0.97100
O157        O  0.67435477  0.17138909  0.26892562    -0.71400
O158        O  0.69274007  0.20473410  0.31879685    -0.75000
Al159      Al  0.67248264  0.16026587  0.31092214     1.49000
C160        C  0.68112619  0.23475401  0.31263517     0.92400
O161        O  0.57927315  0.22679267  0.31354039    -0.81200
O162        O  0.56103342  0.15332663  0.32362542    -0.74700
Al163      Al  0.61821811  0.20966869  0.33680268     1.90100
O164        O  0.57835164  0.19338464  0.27368391    -0.73800
O165        O  0.60776152  0.10647373  0.30712737    -0.73700
O166        O  0.62357084  0.14660431  0.25665328    -0.79300
O167        O  0.66414685  0.11273193  0.30223028    -0.77500
O168        O  0.62826537  0.17376807  0.31305681    -1.13700
O169        O  0.67241920  0.14773800  0.35262409    -0.72800
C170        C  0.66558642  0.16928006  0.37320102     0.97900
C171        C  0.56630523  0.21865160  0.28817909     0.94300
Al172      Al  0.59530047  0.15166640  0.29199665     1.55600
O173        O  0.64865050  0.24064201  0.31453910    -0.77500
C174        C  0.63775466  0.09332140  0.30484274     0.98400
C175        C  0.56172760  0.16406523  0.35073322     0.93300
O176        O  0.58716323  0.18233970  0.36064995    -0.82800
O177        O  0.80784249  0.66328958  0.16588992    -0.82300
C178        C  0.88261305  0.67885573  0.06303000     0.97100
O179        O  0.86383966  0.69779123  0.07946170    -0.71400
O180        O  0.81446424  0.70932497  0.11852882    -0.75000
Al181      Al  0.86146848  0.69288083  0.12258105     1.49000
C182        C  0.78847463  0.69530152  0.10506267     0.92400
O183        O  0.80463500  0.59519632  0.10122577    -0.81200
O184        O  0.86958769  0.57956375  0.12798838    -0.74700
Al185      Al  0.80961959  0.63166030  0.13169270     1.90100
O186        O  0.84941851  0.60671523  0.07261128    -0.73800
O187        O  0.91473126  0.63002842  0.13258933    -0.73700
O188        O  0.89880944  0.65311729  0.07462575    -0.79300
O189        O  0.91159110  0.68684728  0.12693646    -0.77500
O190        O  0.85065420  0.64778727  0.11936942    -1.13700
O191        O  0.85921470  0.68992768  0.16561752    -0.72800
C192        C  0.83319521  0.67814248  0.18005405     0.97900
C193        C  0.82273342  0.58862446  0.07819995     0.94300
Al194      Al  0.88091626  0.61948066  0.10325216     1.55600
O195        O  0.78482360  0.66242635  0.10505064    -0.77500
C196        C  0.92879264  0.65978163  0.13419025     0.98400
C197        C  0.85096056  0.57577305  0.15112085     0.93300
O198        O  0.82996382  0.59917221  0.15888019    -0.82800
O199        O  0.81945042  0.58855969  0.33368031    -0.82300
C200        C  0.87124560  0.66251889  0.43494724     0.97100
O201        O  0.87828950  0.63113255  0.42854566    -0.71400
O202        O  0.82269282  0.59064372  0.42132749    -0.75000
Al203      Al  0.86259118  0.60025089  0.39712088     1.49000
C204        C  0.79488282  0.57785158  0.41013517     0.92400
O205        O  0.77595971  0.66078730  0.37727275    -0.81200
O206        O  0.86271485  0.67248726  0.32842978    -0.74700
Al207      Al  0.80014832  0.62438362  0.35667736     1.90100
O208        O  0.81672755  0.70033905  0.36886950    -0.73800
O209        O  0.90842413  0.66169605  0.37508527    -0.73700
O210        O  0.85871218  0.68314656  0.41505051    -0.79300
O211        O  0.90608490  0.60467054  0.37638945    -0.77500
O212        O  0.84103213  0.63340697  0.37544318    -1.13700
O213        O  0.85019236  0.56306752  0.36991533    -0.72800
C214        C  0.83400703  0.56178715  0.34470978     0.97900
C215        C  0.78492700  0.69254805  0.37323132     0.94300
Al216      Al  0.86013322  0.67592471  0.37216759     1.55600
O217        O  0.78318319  0.58956360  0.38518060    -0.77500
C218        C  0.92388268  0.63260776  0.37454472     0.98400
C219        C  0.83597391  0.66697030  0.31151341     0.93300
O220        O  0.80826432  0.65455068  0.32279190    -0.82800
O221        O  0.19069966  0.65797442  0.08462675    -0.82300
C222        C  0.13937790  0.67377587  0.19660750     0.97100
O223        O  0.15390396  0.69223924  0.17638420    -0.71400
O224        O  0.19311308  0.70256478  0.12878470    -0.75000
Al225      Al  0.14638097  0.68570299  0.13398635     1.49000
C226        C  0.22132838  0.69030468  0.13971403     0.92400
O227        O  0.20611707  0.58770064  0.14713339    -0.81200
O228        O  0.13646820  0.57244722  0.13101851    -0.74700
Al229      Al  0.19546566  0.62581705  0.11860267     1.90100
O230        O  0.17060370  0.60137039  0.18262203    -0.73800
O231        O  0.09041407  0.62276610  0.13710947    -0.73700
O232        O  0.12239752  0.64614655  0.18977728    -0.79300
O233        O  0.09703661  0.67970550  0.13902896    -0.77500
O234        O  0.15751622  0.64110271  0.13688747    -1.13700
O235        O  0.13848927  0.68026074  0.09173530    -0.72800
C236        C  0.16160024  0.66910872  0.07412084     0.97900
C237        C  0.19229533  0.58067798  0.17230519     0.94300
Al238      Al  0.13182326  0.61253487  0.15855394     1.55600
O239        O  0.22536028  0.65738114  0.14142552    -0.77500
C240        C  0.07752105  0.65295814  0.13719691     0.98400
C241        C  0.14927965  0.57040329  0.10467773     0.93300
O242        O  0.16917321  0.59432392  0.09489307    -0.82800
O243        O  0.18950078  0.65630702  0.33273860    -0.82300
C244        C  0.13627983  0.64875733  0.44684561     0.97100
O245        O  0.14710225  0.67140951  0.42838345    -0.71400
O246        O  0.18764294  0.69496410  0.38682744    -0.75000
Al247      Al  0.14250783  0.67122213  0.38608431     1.49000
C248        C  0.21768173  0.68326607  0.39394447     0.92400
O249        O  0.21563537  0.58298173  0.38802324    -0.81200
O250        O  0.14841340  0.55895595  0.37222512    -0.74700
Al251      Al  0.19853839  0.62080998  0.36326422     1.90100
O252        O  0.17882433  0.58164585  0.42533474    -0.73800
O253        O  0.09375624  0.60044893  0.38239673    -0.73700
O254        O  0.12420584  0.61964091  0.43770131    -0.79300
O255        O  0.09352578  0.65742152  0.38696044    -0.77500
O256        O  0.15931971  0.62815931  0.38375207    -1.13700
O257        O  0.13699471  0.67475145  0.34348076    -0.72800
C258        C  0.16083208  0.67023338  0.32454344     0.97900
C259        C  0.20601730  0.57056425  0.41304871     0.94300
Al260      Al  0.13785492  0.59306051  0.40266945     1.55600
O261        O  0.22500081  0.65186030  0.38839180    -0.77500
C262        C  0.07711403  0.62889159  0.38228308     0.98400
C263        C  0.16338663  0.55945383  0.34681166     0.93300
O264        O  0.17670086  0.58767231  0.33683720    -0.82800
O265        O  0.80392129  0.35568911  0.19705263    -0.82300
C266        C  0.87677462  0.34216797  0.30415424     0.97100
O267        O  0.85765577  0.32309980  0.28730329    -0.71400
O268        O  0.80801772  0.31136152  0.24701216    -0.75000
Al269      Al  0.85566391  0.32674060  0.24396123     1.49000
C270        C  0.78199460  0.32680257  0.25794539     0.92400
O271        O  0.80176289  0.42568144  0.25969341    -0.81200
O272        O  0.86729024  0.43998794  0.23662069    -0.74700
Al273      Al  0.80629170  0.38847333  0.23029407     1.90100
O274        O  0.84493010  0.41379534  0.29126830    -0.73800
O275        O  0.91114176  0.38907581  0.23489329    -0.73700
O276        O  0.89371579  0.36748486  0.29262785    -0.79300
O277        O  0.90591897  0.33226033  0.24035150    -0.77500
O278        O  0.84629383  0.37198231  0.24541507    -1.13700
O279        O  0.85397487  0.32785008  0.20110575    -0.72800
C280        C  0.82897993  0.33949543  0.18501140     0.97900
C281        C  0.81872531  0.43173989  0.28402960     0.94300
Al282      Al  0.87701091  0.40041265  0.26250935     1.55600
O283        O  0.77932211  0.35957892  0.25601262    -0.77500
C284        C  0.92338679  0.35892158  0.23199203     0.98400
C285        C  0.84999531  0.44306005  0.21213543     0.93300
O286        O  0.82902802  0.41936380  0.20349344    -0.82800
O287        O  0.81533522  0.42770186  0.03366841    -0.82300
C288        C  0.86436822  0.35419880  0.43287336     0.97100
O289        O  0.87302004  0.38494986  0.44070849    -0.71400
O290        O  0.81932714  0.42693093  0.44669406    -0.75000
Al291      Al  0.85848163  0.41547967  0.47207409     1.49000
C292        C  0.79182160  0.43991048  0.45706490     0.92400
O293        O  0.76752645  0.35645603  0.98929017    -0.81200
O294        O  0.85471660  0.34098772  0.03804122    -0.74700
Al295      Al  0.79418036  0.39215832  0.01007176     1.90100
O296        O  0.80649821  0.31563810  0.99720003    -0.73800
O297        O  0.89999707  0.35080985  0.99294938    -0.73700
O298        O  0.84983782  0.33343668  0.45149900    -0.79300
O299        O  0.90113783  0.40895713  0.49472574    -0.77500
O300        O  0.83423493  0.38179138  0.99185395    -1.13700
O301        O  0.84745276  0.45171629  0.99840080    -0.72800
C302        C  0.83141533  0.45385835  0.02307551     0.97900
C303        C  0.77486551  0.32450268  0.99394148     0.94300
Al304      Al  0.85104235  0.33847676  0.99451447     1.55600
O305        O  0.77871138  0.42741805  0.98108150    -0.77500
C306        C  0.91670950  0.37932114  0.99575605     0.98400
C307        C  0.82896026  0.34738727  0.05484553     0.93300
O308        O  0.80179753  0.36171469  0.04394981    -0.82800
O309        O  0.18556968  0.35525056  0.04242265    -0.82300
C310        C  0.12164870  0.35653041  0.42994578     0.97100
O311        O  0.13367931  0.33441123  0.44876596    -0.71400
O312        O  0.17902076  0.31491533  0.49131562    -0.75000
Al313      Al  0.13428545  0.33811409  0.49203513     1.49000
C314        C  0.20992904  0.32508393  0.48546207     0.92400
O315        O  0.20841479  0.42711806  0.48558268    -0.81200
O316        O  0.13967250  0.44975682  0.00151677    -0.74700
Al317      Al  0.19145290  0.38926696  0.01159953     1.90100
O318        O  0.17043008  0.42739231  0.44819920    -0.73800
O319        O  0.08701824  0.40882142  0.49148498    -0.73700
O320        O  0.11533925  0.38745803  0.43802407    -0.79300
O321        O  0.08499570  0.35040721  0.99215991    -0.77500
O322        O  0.15218661  0.38129976  0.49132467    -1.13700
O323        O  0.13196584  0.33599508  0.03589135    -0.72800
C324        C  0.15849402  0.34111186  0.05295317     0.97900
C325        C  0.19858291  0.43841596  0.46010395     0.94300
Al326      Al  0.13029533  0.41560523  0.47138343     1.55600
O327        O  0.21715512  0.35667755  0.98773509    -0.77500
C328        C  0.06925679  0.37924890  0.99435682     0.98400
C329        C  0.15208234  0.44858554  0.02823818     0.93300
O330        O  0.16929169  0.42226925  0.03751314    -0.82800
O331        O  0.16780901  0.41798817  0.20229558    -0.82300
C332        C  0.11483547  0.34343158  0.30048706     0.97100
O333        O  0.09880777  0.36830556  0.28731953    -0.71400
O334        O  0.15076574  0.41184530  0.28929544    -0.75000
Al335      Al  0.11881466  0.40077982  0.25865241     1.49000
C336        C  0.17822920  0.42906585  0.28420452     0.92400
O337        O  0.21537821  0.35457394  0.25360160    -0.81200
O338        O  0.13691439  0.32654784  0.19901431    -0.74700
Al339      Al  0.18884459  0.38592672  0.22912952     1.90100
O340        O  0.18249676  0.30848906  0.24437320    -0.73800
O341        O  0.08637016  0.33397770  0.23738880    -0.73700
O342        O  0.13441918  0.32384249  0.28525358    -0.79300
O343        O  0.08453851  0.39065959  0.22879711    -0.77500
O344        O  0.14816517  0.37098049  0.24305825    -1.13700
O345        O  0.13308899  0.44112624  0.23490853    -0.72800
C346        C  0.15262491  0.44426861  0.21223700     0.97900
C347        C  0.21206816  0.32188974  0.25067300     0.94300
Al348      Al  0.13602248  0.32622497  0.24176140     1.55600
O349        O  0.19601611  0.42254323  0.26071059    -0.77500
C350        C  0.07011042  0.36078265  0.22776962     0.98400
C351        C  0.16192834  0.33738989  0.18299410     0.93300
O352        O  0.18765770  0.35419145  0.19484070    -0.82800
C353        C  0.08822767  0.36123731  0.34903263    -0.21800
C354        C  0.11209762  0.33997669  0.33394931    -0.09800
C355        C  0.13614295  0.32025285  0.35146106     0.29100
C356        C  0.13765922  0.32379961  0.38309344    -0.21800
C357        C  0.11559485  0.34731217  0.39770463    -0.09800
C358        C  0.09000335  0.36505913  0.38038670     0.29100
F359        F  0.06737340  0.38718472  0.39363467    -0.20300
H360        H  0.06914203  0.37651020  0.33639024     0.17400
H361        H  0.15758325  0.30985652  0.39592835     0.17400
F362        F  0.15979119  0.29946512  0.33800538    -0.20300
C363        C  0.12766219  0.32978000  0.10198438    -0.21800
C364        C  0.15886909  0.33261929  0.08581659    -0.09800
C365        C  0.19105174  0.33228887  0.10210632     0.29100
C366        C  0.19177043  0.33220002  0.13364671    -0.21800
C367        C  0.16064581  0.33167920  0.14986311    -0.09800
C368        C  0.12844896  0.32915613  0.13375330     0.29100
F369        F  0.09762848  0.32868117  0.14858184    -0.20300
H370        H  0.10260398  0.33009184  0.09012754     0.17400
H371        H  0.21685140  0.33359040  0.14543933     0.17400
F372        F  0.22209354  0.33353790  0.08761339    -0.20300
C373        C  0.97486095  0.41082676  0.00050650    -0.21800
C374        C  0.95576415  0.37913973  0.99923691    -0.09800
C375        C  0.97558749  0.34884088  0.49998992     0.29100
C376        C  0.01228799  0.34924463  0.49949416    -0.21800
C377        C  0.03044591  0.37960707  0.99850277    -0.09800
C378        C  0.01164545  0.41118509  0.00015195     0.29100
F379        F  0.02858814  0.44259563  0.00053090    -0.20300
H380        H  0.96129156  0.43557401  0.00087932     0.17400
H381        H  0.02576846  0.32447673  0.49859050     0.17400
F382        F  0.95879193  0.31735462  0.49945410    -0.20300
C383        C  0.97723830  0.38680705  0.21247751    -0.21800
C384        C  0.95960392  0.35609628  0.22156058    -0.09800
C385        C  0.97848985  0.32490887  0.22494514     0.29100
C386        C  0.01496920  0.32582684  0.22369546    -0.21800
C387        C  0.03282192  0.35777649  0.21913594    -0.09800
C388        C  0.01354603  0.38781255  0.21139064     0.29100
F389        F  0.02958320  0.41897010  0.20549669    -0.20300
H390        H  0.96318088  0.41098288  0.20860556     0.17400
H391        H  0.02922555  0.30209149  0.22885556     0.17400
F392        F  0.96220585  0.29428547  0.23212427    -0.20300
C393        C  0.90275838  0.35636445  0.35475677    -0.21800
C394        C  0.87782349  0.33738275  0.33767400    -0.09800
C395        C  0.85123318  0.31902999  0.35320866     0.29100
C396        C  0.84820622  0.32226157  0.38476214    -0.21800
C397        C  0.87147519  0.34389836  0.40123053    -0.09800
C398        C  0.89970725  0.35963072  0.38600866     0.29100
F399        F  0.92368820  0.37959406  0.40119624    -0.20300
H400        H  0.92379592  0.37039676  0.34369648     0.17400
H401        H  0.82632094  0.30978938  0.39594308     0.17400
F402        F  0.82660029  0.30018898  0.33780126    -0.20300
C403        C  0.86136047  0.33835659  0.10426382    -0.21800
C404        C  0.82964289  0.33928883  0.08775216    -0.09800
C405        C  0.79793499  0.33640186  0.10357407     0.29100
C406        C  0.79801914  0.33490908  0.13512612    -0.21800
C407        C  0.82956747  0.33569310  0.15172019    -0.09800
C408        C  0.86141338  0.33664138  0.13599451     0.29100
F409        F  0.89251421  0.33857490  0.15126724    -0.20300
H410        H  0.88604398  0.34089014  0.09273500     0.17400
H411        H  0.77324477  0.33400789  0.14666311     0.17400
F412        F  0.76659100  0.33598305  0.08860289    -0.20300
C413        C  0.22114766  0.50920643  0.40470801    -0.21800
C414        C  0.22124359  0.53784662  0.42451027    -0.09800
C415        C  0.22442508  0.53180695  0.45569451     0.29100
C416        C  0.22309331  0.49758100  0.46696378    -0.21800
C417        C  0.21611321  0.46947424  0.44734510    -0.09800
C418        C  0.21740221  0.47511824  0.41603342     0.29100
F419        F  0.21164617  0.44830543  0.39655278    -0.20300
H420        H  0.21897677  0.51341954  0.38055321     0.17400
H421        H  0.22258768  0.49364829  0.49121291     0.17400
F422        F  0.22452132  0.55899413  0.47528065    -0.20300
C423        C  0.16482608  0.46209289  0.33032327    -0.21800
C424        C  0.18381789  0.46051397  0.30339260    -0.09800
C425        C  0.19816299  0.49181521  0.29177984     0.29100
C426        C  0.19073549  0.52409150  0.30537639    -0.21800
C427        C  0.16913794  0.52571469  0.33090526    -0.09800
C428        C  0.15703981  0.49396810  0.34359353     0.29100
F429        F  0.13710288  0.49340119  0.36870698    -0.20300
H430        H  0.15362533  0.43848196  0.34011861     0.17400
H431        H  0.20168311  0.54786672  0.29573280     0.17400
F432        F  0.21757633  0.49151687  0.26639510    -0.20300
C433        C  0.12128405  0.65366497  0.03126346    -0.21800
C434        C  0.15395782  0.66680674  0.04142675    -0.09800
C435        C  0.18003367  0.67412760  0.02031964     0.29100
C436        C  0.17330255  0.66869143  0.48972181    -0.21800
C437        C  0.14072814  0.65580335  0.47936901    -0.09800
C438        C  0.11411754  0.64928083  0.50022593     0.29100
F439        F  0.08240785  0.63673507  0.49084104    -0.20300
H440        H  0.10113750  0.64706435  0.04735297     0.17400
H441        H  0.19425856  0.67348178  0.47394891     0.17400
F442        F  0.21206043  0.68606353  0.02944668    -0.20300
C443        C  0.18335621  0.68314011  0.27274369    -0.21800
C444        C  0.15479290  0.67936715  0.29218667    -0.09800
C445        C  0.12060319  0.67983213  0.27962153     0.29100
C446        C  0.11548829  0.68058957  0.24820555    -0.21800
C447        C  0.14414988  0.68222630  0.22886045    -0.09800
C448        C  0.17812362  0.68495129  0.24136081     0.29100
F449        F  0.20640417  0.68582739  0.22317857    -0.20300
H450        H  0.20992079  0.68299278  0.28177331     0.17400
H451        H  0.08913292  0.67818047  0.23889702     0.17400
F452        F  0.09217083  0.67659164  0.29745420    -0.20300
C453        C  0.19500533  0.51633347  0.16574714    -0.21800
C454        C  0.19209108  0.54497803  0.18522960    -0.09800
C455        C  0.17680306  0.53966077  0.21368349     0.29100
C456        C  0.16162813  0.50751927  0.22105077    -0.21800
C457        C  0.16329135  0.47921623  0.20120590    -0.09800
C458        C  0.18097960  0.48360527  0.17372488     0.29100
F459        F  0.18328237  0.45675631  0.15394215    -0.20300
H460        H  0.20564614  0.51985441  0.14338667     0.17400
H461        H  0.14926252  0.50459513  0.24277060     0.17400
F462        F  0.17428481  0.56637889  0.23359584    -0.20300
C463        C  0.15052151  0.54261515  0.05408893    -0.21800
C464        C  0.14374745  0.53924074  0.08513143    -0.09800
C465        C  0.13644646  0.50561490  0.09693992     0.29100
C466        C  0.13939545  0.47587534  0.07856609    -0.21800
C467        C  0.14775480  0.47947269  0.04784584    -0.09800
C468        C  0.15195599  0.51329207  0.03559465     0.29100
F469        F  0.15904945  0.51805575  0.00589298    -0.20300
H470        H  0.15563181  0.56812921  0.04412290     0.17400
H471        H  0.13501278  0.45010518  0.08824719     0.17400
F472        F  0.12750999  0.50134931  0.12627064    -0.20300
C473        C  0.77721566  0.51560127  0.40264828    -0.21800
C474        C  0.78108407  0.54412761  0.42249866    -0.09800
C475        C  0.78026147  0.53741136  0.45373706     0.29100
C476        C  0.77826932  0.50277866  0.46466634    -0.21800
C477        C  0.77957127  0.47416375  0.44478671    -0.09800
C478        C  0.77784412  0.48092882  0.41357554     0.29100
F479        F  0.77923761  0.45413673  0.39368215    -0.20300
H480        H  0.77752410  0.52003005  0.37848836     0.17400
H481        H  0.77934861  0.49831920  0.48881664     0.17400
F482        F  0.78364537  0.56412684  0.47365143    -0.20300
C483        C  0.98099293  0.59947822  0.37272254    -0.21800
C484        C  0.96316404  0.63158576  0.37368382    -0.09800
C485        C  0.98345099  0.66255671  0.37634394     0.29100
C486        C  0.02012088  0.66126990  0.37826206    -0.21800
C487        C  0.03800791  0.62923314  0.37783848    -0.09800
C488        C  0.01783225  0.59819419  0.37477868     0.29100
F489        F  0.03347318  0.56644097  0.37452498    -0.20300
H490        H  0.96635237  0.57511758  0.37100981     0.17400
H491        H  0.03454481  0.68566535  0.38077341     0.17400
F492        F  0.96797345  0.69429185  0.37819896    -0.20300
C493        C  0.81342696  0.52711145  0.30026365    -0.21800
C494        C  0.82864687  0.52800348  0.32943325    -0.09800
C495        C  0.83473135  0.49629972  0.34498783     0.29100
C496        C  0.82666446  0.46457648  0.33121833    -0.21800
C497        C  0.81346823  0.46365022  0.30142778    -0.09800
C498        C  0.80600710  0.49523933  0.28624708     0.29100
F499        F  0.79450709  0.49544553  0.25703050    -0.20300
H500        H  0.80798336  0.55115773  0.28794629     0.17400
H501        H  0.83303580  0.44049016  0.34316152     0.17400
F502        F  0.84852476  0.49572888  0.37348327    -0.20300
C503        C  0.88314536  0.52656463  0.17579772    -0.21800
C504        C  0.85136854  0.54233833  0.16744806    -0.09800
C505        C  0.81962988  0.52470380  0.17273473     0.29100
C506        C  0.81973580  0.49160865  0.18612643    -0.21800
C507        C  0.85135834  0.47614376  0.19525696    -0.09800
C508        C  0.88315769  0.49385332  0.19027374     0.29100
F509        F  0.91404902  0.47928767  0.19894572    -0.20300
H510        H  0.90778552  0.53979003  0.17144277     0.17400
H511        H  0.79498878  0.47842275  0.19017881     0.17400
F512        F  0.78858409  0.53906883  0.16415543    -0.20300
C513        C  0.98639921  0.68957736  0.12887508    -0.21800
C514        C  0.96652645  0.66160873  0.14050473    -0.09800
C515        C  0.98365177  0.63222216  0.15289081     0.29100
C516        C  0.01976243  0.62973345  0.15137870    -0.21800
C517        C  0.03950175  0.65667663  0.13812487    -0.09800
C518        C  0.02279737  0.68724504  0.12778414     0.29100
F519        F  0.04137639  0.71399783  0.11529671    -0.20300
H520        H  0.97369662  0.71229669  0.11901060     0.17400
H521        H  0.03232066  0.60654473  0.16054923     0.17400
F522        F  0.96542263  0.60517869  0.16536887    -0.20300
C523        C  0.86353167  0.68925741  0.23046599    -0.21800
C524        C  0.83294434  0.68007675  0.21381687    -0.09800
C525        C  0.80325597  0.66929452  0.22994286     0.29100
C526        C  0.80461511  0.66648146  0.26143749    -0.21800
C527        C  0.83552421  0.67403409  0.27815138    -0.09800
C528        C  0.86490775  0.68627653  0.26226665     0.29100
F529        F  0.89518531  0.69442258  0.27721902    -0.20300
H530        H  0.88691771  0.69757457  0.21878744     0.17400
H531        H  0.78124620  0.65731958  0.27269054     0.17400
F532        F  0.77292762  0.66039909  0.21535796    -0.20300
C533        C  0.85280288  0.69397013  0.48163842    -0.21800
C534        C  0.87765313  0.67406977  0.46644593    -0.09800
C535        C  0.90668898  0.66111622  0.48280034     0.29100
C536        C  0.91019291  0.66715304  0.01366966    -0.21800
C537        C  0.88388405  0.68398439  0.02974810    -0.09800
C538        C  0.85583722  0.69928078  0.01336854     0.29100
F539        F  0.82962087  0.71545116  0.02797447    -0.20300
H540        H  0.83007423  0.70394103  0.46947965     0.17400
H541        H  0.93223993  0.65540564  0.02555887     0.17400
F542        F  0.93163248  0.64239732  0.46879147    -0.20300
C543        C  0.84141967  0.51815342  0.02266072    -0.21800
C544        C  0.82834814  0.48835657  0.03763693    -0.09800
C545        C  0.80885690  0.49276737  0.06410338     0.29100
C546        C  0.80382346  0.52627630  0.07571594    -0.21800
C547        C  0.81800943  0.55586945  0.06118871    -0.09800
C548        C  0.83608996  0.55148003  0.03403341     0.29100
F549        F  0.85008989  0.57935495  0.01908920    -0.20300
H550        H  0.85561567  0.51581135  0.00181109     0.17400
H551        H  0.79063611  0.52882772  0.09704927     0.17400
F552        F  0.79518124  0.46482058  0.07913247    -0.20300
C553        C  0.69553181  0.29276668  0.28823477    -0.21800
C554        C  0.70655600  0.26154999  0.30233463    -0.09800
C555        C  0.74268028  0.25400576  0.30361811     0.29100
C556        C  0.76655553  0.27561923  0.28913854    -0.21800
C557        C  0.75552061  0.30583199  0.27386387    -0.09800
C558        C  0.71995422  0.31508458  0.27432975     0.29100
F559        F  0.70862441  0.34461475  0.26013762    -0.20300
H560        H  0.66799282  0.29923111  0.28701636     0.17400
H561        H  0.79396427  0.26852097  0.28978232     0.17400
F562        F  0.75520097  0.22513106  0.31814796    -0.20300
C563        C  0.73421833  0.24025613  0.02295625    -0.21800
C564        C  0.70076607  0.25105369  0.03138050    -0.09800
C565        C  0.68965515  0.28473436  0.02218394     0.29100
C566        C  0.71284770  0.30790736  0.00748920    -0.21800
C567        C  0.74728311  0.29780192  0.00113315    -0.09800
C568        C  0.75703171  0.26297053  0.00790838     0.29100
F569        F  0.79160587  0.25197714  0.50383209    -0.20300
H570        H  0.74324147  0.21416450  0.02858732     0.17400
H571        H  0.70442010  0.33437231  0.00257367     0.17400
F572        F  0.65692613  0.29585898  0.02832357    -0.20300
C573        C  0.67752352  0.17636910  0.45711743    -0.21800
C574        C  0.65792813  0.14724947  0.46699451    -0.09800
C575        C  0.64484536  0.12312341  0.44574695     0.29100
C576        C  0.65051654  0.12878802  0.41493221    -0.21800
C577        C  0.66823362  0.15907227  0.40508961    -0.09800
C578        C  0.68212218  0.18261819  0.42637813     0.29100
F579        F  0.69874212  0.21241500  0.41735763    -0.20300
H580        H  0.68753900  0.19546519  0.47315732     0.17400
H581        H  0.63894009  0.11086081  0.39864313     0.17400
F582        F  0.62591620  0.09473225  0.45468715    -0.20300
C583        C  0.65030147  0.13382778  0.19780882    -0.21800
C584        C  0.66156889  0.16109155  0.21683541    -0.09800
C585        C  0.67810663  0.19068574  0.20418040     0.29100
C586        C  0.68113205  0.19381847  0.17274017    -0.21800
C587        C  0.66888679  0.16694948  0.15369634    -0.09800
C588        C  0.65430372  0.13645406  0.16655352     0.29100
F589        F  0.64127626  0.11041840  0.14875505    -0.20300
H590        H  0.63748412  0.11083438  0.20712753     0.17400
H591        H  0.69206459  0.21763481  0.16319113     0.17400
F592        F  0.68904837  0.21758208  0.22197918    -0.20300
C593        C  0.70118500  0.74085137  0.35184570    -0.21800
C594        C  0.71421391  0.77515536  0.34747012    -0.09800
C595        C  0.74910069  0.78250785  0.35617008     0.29100
C596        C  0.77082709  0.75585497  0.36710229    -0.21800
C597        C  0.75870445  0.72099594  0.36940281    -0.09800
C598        C  0.72317055  0.71394580  0.36255325     0.29100
F599        F  0.71014098  0.68081485  0.36434066    -0.20300
H600        H  0.67432025  0.73447944  0.34574292     0.17400
H601        H  0.79787767  0.76236274  0.37242429     0.17400
F602        F  0.76264042  0.81538022  0.35359625    -0.20300
C603        C  0.67922437  0.00359326  0.30946927    -0.21800
C604        C  0.65099425  0.98210743  0.30059367    -0.09800
C605        C  0.61909579  0.99780899  0.29150908     0.29100
C606        C  0.61488740  0.03385005  0.29351653    -0.21800
C607        C  0.64250854  0.05516226  0.30370422    -0.09800
C608        C  0.67517610  0.03989226  0.31085400     0.29100
F609        F  0.70281105  0.05981936  0.32035691    -0.20300
H610        H  0.70386097  0.99223010  0.31678230     0.17400
H611        H  0.58994040  0.04512609  0.28695238     0.17400
F612        F  0.59133472  0.97825626  0.28167018    -0.20300
C613        C  0.70324354  0.73123247  0.07240944    -0.21800
C614        C  0.71271037  0.76650139  0.06754615    -0.09800
C615        C  0.74816267  0.77646285  0.07118312     0.29100
C616        C  0.77259088  0.75260857  0.08229435    -0.21800
C617        C  0.76259872  0.71819897  0.08970623    -0.09800
C618        C  0.72802208  0.70712215  0.08326344     0.29100
F619        F  0.71757236  0.67375598  0.08926821    -0.20300
H620        H  0.67621830  0.72279331  0.06972683     0.17400
H621        H  0.79933164  0.76152492  0.08602550     0.17400
F622        F  0.75905006  0.80987267  0.06582098    -0.20300
C623        C  0.59894537  0.99068976  0.07239914    -0.21800
C624        C  0.63024023  0.97222382  0.06897099    -0.09800
C625        C  0.66163258  0.99164424  0.06542685     0.29100
C626        C  0.66131857  0.02833173  0.06462517    -0.21800
C627        C  0.62987722  0.04678644  0.06718015    -0.09800
C628        C  0.59865314  0.02742553  0.07158617     0.29100
F629        F  0.56754001  0.04382352  0.07444498    -0.20300
H630        H  0.57441096  0.97666471  0.07510360     0.17400
H631        H  0.68574885  0.04228201  0.06109358     0.17400
F632        F  0.69265534  0.97536233  0.06153622    -0.20300
C633        C  0.69232208  0.87006867  0.45861649    -0.21800
C634        C  0.66730343  0.89021107  0.47348987    -0.09800
C635        C  0.65025874  0.91708306  0.45723056     0.29100
C636        C  0.65586737  0.92174473  0.42646520    -0.21800
C637        C  0.67800342  0.89938938  0.41069827    -0.09800
C638        C  0.69759288  0.87445976  0.42734653     0.29100
F639        F  0.71980369  0.85271266  0.41319632    -0.20300
H640        H  0.70608226  0.84947490  0.47072043     0.17400
H641        H  0.64080530  0.94158738  0.41456758     0.17400
F642        F  0.62676949  0.93805164  0.47074815    -0.20300
C643        C  0.67044344  0.81677253  0.21035036    -0.21800
C644        C  0.67582921  0.84848512  0.22562083    -0.09800
C645        C  0.67907249  0.87951804  0.20820897     0.29100
C646        C  0.67605262  0.87857109  0.17640815    -0.21800
C647        C  0.66956714  0.84680400  0.16127538    -0.09800
C648        C  0.66740413  0.81578484  0.17881932     0.29100
F649        F  0.66156554  0.78421511  0.16567546    -0.20300
H650        H  0.66774582  0.79247171  0.22294646     0.17400
H651        H  0.67753173  0.90290631  0.16371104     0.17400
F652        F  0.68323561  0.91101881  0.22187836    -0.20300
C653        C  0.25252045  0.23759805  0.46776625    -0.21800
C654        C  0.28841492  0.24625421  0.46734470    -0.09800
C655        C  0.29817180  0.28165241  0.47167908     0.29100
C656        C  0.27267653  0.30724780  0.47685632    -0.21800
C657        C  0.23683885  0.29833562  0.47786939    -0.09800
C658        C  0.22713336  0.26304129  0.47286664     0.29100
F659        F  0.19299540  0.25278574  0.47291307    -0.20300
H660        H  0.24386765  0.21084047  0.46421690     0.17400
H661        H  0.28111597  0.33403555  0.48057661     0.17400
F662        F  0.33234169  0.29165535  0.47120669    -0.20300
C663        C  0.50420375  0.15699827  0.41981411    -0.21800
C664        C  0.47062086  0.15463180  0.40638747    -0.09800
C665        C  0.46762969  0.15241887  0.37473203     0.29100
C666        C  0.49761782  0.15336302  0.35698656    -0.21800
C667        C  0.53110366  0.15757174  0.37027499    -0.09800
C668        C  0.53414788  0.15900539  0.40202565     0.29100
F669        F  0.56592827  0.16304666  0.41587064    -0.20300
H670        H  0.50721575  0.15892202  0.44418357     0.17400
H671        H  0.49444463  0.15253142  0.33255513     0.17400
F672        F  0.43571018  0.14983859  0.36090929    -0.20300
C673        C  0.48973397  0.22643740  0.48000404    -0.21800
C674        C  0.46213176  0.22342412  0.50052748    -0.09800
C675        C  0.46878627  0.22595472  0.03141231     0.29100
C676        C  0.50350912  0.22764485  0.04191709    -0.21800
C677        C  0.53124173  0.22546250  0.02153936    -0.09800
C678        C  0.52451050  0.22672196  0.49039322     0.29100
F679        F  0.55063547  0.22418919  0.47012899    -0.20300
H680        H  0.48463615  0.22398676  0.45594589     0.17400
H681        H  0.50860854  0.22609252  0.06605854     0.17400
F682        F  0.44259896  0.22288012  0.05164678    -0.20300
C683        C  0.30057153  0.28805186  0.22935290    -0.21800
C684        C  0.29450590  0.25180901  0.23146560    -0.09800
C685        C  0.26381542  0.23953149  0.24542783     0.29100
C686        C  0.23845288  0.26299857  0.25456017    -0.21800
C687        C  0.24305243  0.29912667  0.25006241    -0.09800
C688        C  0.27500249  0.31164174  0.23845290     0.29100
F689        F  0.28024202  0.34635888  0.23322006    -0.20300
H690        H  0.32417512  0.29809215  0.21904001     0.17400
H691        H  0.21420171  0.25274359  0.26358787     0.17400
F692        F  0.25769317  0.20472956  0.24944321    -0.20300
C693        C  0.50612945  0.16654150  0.17130574    -0.21800
C694        C  0.47225056  0.16342148  0.15862783    -0.09800
C695        C  0.46816843  0.15895441  0.12731171     0.29100
C696        C  0.49748806  0.15804659  0.10897077    -0.21800
C697        C  0.53136941  0.16256039  0.12135311    -0.09800
C698        C  0.53550972  0.16668106  0.15282945     0.29100
F699        F  0.56775704  0.17130586  0.16569156    -0.20300
H700        H  0.50976770  0.17029542  0.19542358     0.17400
H701        H  0.49352102  0.15522264  0.08479365     0.17400
F702        F  0.43579923  0.15567378  0.11441115    -0.20300
C703        C  0.31420198  0.16698914  0.31878910    -0.21800
C704        C  0.33765617  0.14262581  0.30717904    -0.09800
C705        C  0.35433356  0.11873801  0.32696320     0.29100
C706        C  0.34939104  0.12097146  0.35802904    -0.21800
C707        C  0.32850687  0.14742999  0.36965213    -0.09800
C708        C  0.31008457  0.16978461  0.34994467     0.29100
F709        F  0.28974346  0.19550958  0.36095142    -0.20300
H710        H  0.30105852  0.18553979  0.30395274     0.17400
H711        H  0.36414010  0.10393010  0.37313937     0.17400
F712        F  0.37672755  0.09443368  0.31647832    -0.20300
C713        C  0.32758510  0.18564524  0.09788959    -0.21800
C714        C  0.33552231  0.15966412  0.11946629    -0.09800
C715        C  0.34569665  0.12631638  0.10959842     0.29100
C716        C  0.34911061  0.11968307  0.07871624    -0.21800
C717        C  0.34134552  0.14574721  0.05721886    -0.09800
C718        C  0.32994694  0.17864324  0.06699736     0.29100
F719        F  0.32324723  0.20472648  0.04672023    -0.20300
H720        H  0.32021489  0.21158711  0.10498870     0.17400
H721        H  0.35828888  0.09436491  0.07158144     0.17400
F722        F  0.35452845  0.10082966  0.12983856    -0.20300
C723        C  0.47027557  0.23179211  0.28677200    -0.21800
C724        C  0.46368019  0.23198938  0.25548926    -0.09800
C725        C  0.49164860  0.23852920  0.23578494     0.29100
C726        C  0.52610303  0.23846239  0.24692384    -0.21800
C727        C  0.53288908  0.23391156  0.27790798    -0.09800
C728        C  0.50468545  0.23369475  0.29802261     0.29100
F729        F  0.51038656  0.22995030  0.32825395    -0.20300
H730        H  0.44915493  0.22691603  0.30230867     0.17400
H731        H  0.54744190  0.23867370  0.23112997     0.17400
F732        F  0.48621422  0.23960597  0.20538236    -0.20300
C733        C  0.28044550  0.69977967  0.40569098    -0.21800
C734        C  0.24451095  0.70653228  0.40862737    -0.09800
C735        C  0.23465233  0.73553521  0.42590212     0.29100
C736        C  0.26010895  0.75852833  0.43791112    -0.21800
C737        C  0.29603497  0.75298745  0.43344568    -0.09800
C738        C  0.30595134  0.72272209  0.41781380     0.29100
F739        F  0.34015570  0.71662466  0.41217431    -0.20300
H740        H  0.28885587  0.67743470  0.39288278     0.17400
H741        H  0.25163134  0.78146131  0.44990091     0.17400
F742        F  0.20037422  0.74182705  0.43112665    -0.20300
C743        C  0.53347269  0.79086116  0.48382958    -0.21800
C744        C  0.53877327  0.79072969  0.01545683    -0.09800
C745        C  0.50964262  0.78433511  0.03399329     0.29100
C746        C  0.47546227  0.78488772  0.02168066    -0.21800
C747        C  0.46999342  0.78762822  0.48985038    -0.09800
C748        C  0.49960867  0.78763876  0.47120669     0.29100
F749        F  0.49574228  0.78828817  0.44073295    -0.20300
H750        H  0.55542748  0.79532015  0.46905718     0.17400
H751        H  0.45337241  0.78457388  0.03670996     0.17400
F752        F  0.51394234  0.78105166  0.06434908    -0.20300
C753        C  0.33825157  0.98234095  0.45128476    -0.21800
C754        C  0.36999608  0.96523840  0.44568539    -0.09800
C755        C  0.40064297  0.98598111  0.44356698     0.29100
C756        C  0.39971556  0.02224280  0.44870653    -0.21800
C757        C  0.36827871  0.03907175  0.45585847    -0.09800
C758        C  0.33727177  0.01867087  0.45617003     0.29100
F759        F  0.30596639  0.03353566  0.46187159    -0.20300
H760        H  0.31410281  0.96739885  0.45283889     0.17400
H761        H  0.42394603  0.03710128  0.44753457     0.17400
F762        F  0.43181594  0.97124021  0.43717584    -0.20300
C763        C  0.54514183  0.85783190  0.39960393    -0.21800
C764        C  0.55158409  0.83353820  0.37661284    -0.09800
C765        C  0.52335658  0.81372352  0.36483329     0.29100
C766        C  0.48945215  0.81894771  0.37537759    -0.21800
C767        C  0.48307778  0.84398851  0.39779808    -0.09800
C768        C  0.51142146  0.86346716  0.40970751     0.29100
F769        F  0.50670794  0.88819303  0.43110922    -0.20300
H770        H  0.56609873  0.87396814  0.40892807     0.17400
H771        H  0.46827536  0.80288831  0.36636578     0.17400
F772        F  0.52823094  0.79009237  0.34258466    -0.20300
C773        C  0.30529757  0.73173707  0.17258240    -0.21800
C774        C  0.29604632  0.76737723  0.17232648    -0.09800
C775        C  0.26303674  0.77687330  0.16064597     0.29100
C776        C  0.23980437  0.75154241  0.14986323    -0.21800
C777        C  0.24838181  0.71580093  0.15043302    -0.09800
C778        C  0.28153345  0.70599775  0.16195558     0.29100
F779        F  0.29090439  0.67181967  0.16313296    -0.20300
H780        H  0.33062009  0.72379510  0.18146753     0.17400
H781        H  0.21463929  0.76026811  0.14121715     0.17400
F782        F  0.25316573  0.81091744  0.15908019    -0.20300
C783        C  0.50741061  0.87635585  0.28442461    -0.21800
C784        C  0.53897265  0.86873284  0.27004516    -0.09800
C785        C  0.53849606  0.86185728  0.23887307     0.29100
C786        C  0.50683364  0.86168151  0.22266551    -0.21800
C787        C  0.47519587  0.86727276  0.23740915    -0.09800
C788        C  0.47563620  0.87524527  0.26830780     0.29100
F789        F  0.44542363  0.88192813  0.28282173    -0.20300
H790        H  0.50716785  0.88182654  0.30840960     0.17400
H791        H  0.50688226  0.85583521  0.19878888     0.17400
F792        F  0.56849577  0.85491656  0.22412793    -0.20300
C793        C  0.33280771  0.99591625  0.20126433    -0.21800
C794        C  0.36319864  0.97592115  0.20483389    -0.09800
C795        C  0.39516771  0.99308715  0.21208206     0.29100
C796        C  0.39666245  0.02937490  0.21476783    -0.21800
C797        C  0.36646927  0.04944515  0.21071438    -0.09800
C798        C  0.33429730  0.03233508  0.20418521     0.29100
F799        F  0.30435075  0.05073482  0.19995396    -0.20300
H800        H  0.30800138  0.98347778  0.19544003     0.17400
H801        H  0.42159370  0.04176399  0.22026985     0.17400
F802        F  0.42529339  0.97497305  0.21636159    -0.20300
C803        C  0.33299600  0.87728989  0.30166933    -0.21800
C804        C  0.33203372  0.84592621  0.28518288    -0.09800
C805        C  0.32926221  0.81389054  0.30079588     0.29100
C806        C  0.32984300  0.81312735  0.33224174    -0.21800
C807        C  0.33353063  0.84416515  0.34887278    -0.09800
C808        C  0.33390776  0.87648670  0.33339709     0.29100
F809        F  0.33800476  0.90695152  0.34871407    -0.20300
H810        H  0.33534116  0.90224675  0.29004062     0.17400
H811        H  0.32900063  0.78792400  0.34364336     0.17400
F812        F  0.32730964  0.78310578  0.28568069    -0.20300
C813        C  0.31894802  0.85257947  0.08517790    -0.21800
C814        C  0.33019347  0.88411569  0.09866911    -0.09800
C815        C  0.34222156  0.91157926  0.08010777     0.29100
C816        C  0.34556543  0.90665575  0.04913015    -0.21800
C817        C  0.33687633  0.87440046  0.03592107    -0.09800
C818        C  0.32231504  0.84766262  0.05390817     0.29100
F819        F  0.31458995  0.81587616  0.04185023    -0.20300
H820        H  0.31031348  0.83079814  0.09912420     0.17400
H821        H  0.35663255  0.92764090  0.03556270     0.17400
F822        F  0.35291703  0.94252025  0.09222620    -0.20300
C823        C  0.48785810  0.81022082  0.14924925    -0.21800
C824        C  0.45702589  0.81981690  0.13376960    -0.09800
C825        C  0.45943033  0.83566339  0.10499460     0.29100
C826        C  0.49188658  0.84513917  0.09359644    -0.21800
C827        C  0.52278878  0.83760288  0.10986744    -0.09800
C828        C  0.52053275  0.81894963  0.13745919     0.29100
F829        F  0.54973683  0.80998889  0.15355139    -0.20300
H830        H  0.48674359  0.79840496  0.17156114     0.17400
H831        H  0.49275828  0.85795188  0.07168004     0.17400
F832        F  0.43019854  0.84425700  0.08874402    -0.20300
O833        O  0.35361002  0.82145972  0.74087750    -0.82300
C834        C  0.33663528  0.88624489  0.63154961     0.97100
O835        O  0.31787850  0.86969529  0.65016863    -0.71400
O836        O  0.30652968  0.82446322  0.69375840    -0.75000
Al837      Al  0.32470825  0.87152277  0.69329197     1.49000
C838        C  0.31907830  0.79594150  0.68449368     0.92400
O839        O  0.41989734  0.81074110  0.67651708    -0.81200
O840        O  0.43876806  0.87579703  0.69395096    -0.74700
Al841      Al  0.38432492  0.81974083  0.70691212     1.90100
O842        O  0.40492948  0.84978283  0.64260817    -0.73800
O843        O  0.39147077  0.92368853  0.69499441    -0.73700
O844        O  0.36355239  0.90257719  0.64084193    -0.79300
O845        O  0.33407915  0.92210748  0.69352279    -0.77500
O846        O  0.36886269  0.85918981  0.69032156    -1.13700
O847        O  0.32833986  0.87291238  0.73626131    -0.72800
C848        C  0.33780181  0.84706418  0.75241322     0.97900
C849        C  0.42421153  0.82504769  0.65079178     0.94300
Al850      Al  0.39757333  0.88592886  0.66962935     1.55600
O851        O  0.35189435  0.79168228  0.68406485    -0.77500
C852        C  0.36271873  0.93878132  0.69801385     0.98400
C853        C  0.44175205  0.86304574  0.72034637     0.93300
O854        O  0.41763138  0.84432911  0.73135346    -0.82800
O855        O  0.42305881  0.82848935  0.90143073    -0.82300
C856        C  0.34793906  0.86817572  0.00468600     0.97100
O857        O  0.37812499  0.87896931  0.99741255    -0.71400
O858        O  0.42241171  0.82748369  0.98905755    -0.75000
Al859      Al  0.40896086  0.86733958  0.96544673     1.49000
C860        C  0.43591794  0.80074944  0.97761226     0.92400
O861        O  0.35404852  0.77625902  0.94368923    -0.81200
O862        O  0.33459432  0.86559031  0.89987763    -0.74700
Al863      Al  0.38836878  0.80513464  0.92413068     1.90100
O864        O  0.31116889  0.81345768  0.93769672    -0.73800
O865        O  0.34337844  0.90831570  0.94722728    -0.73700
O866        O  0.32784152  0.85325127  0.98557956    -0.79300
O867        O  0.40027110  0.91065104  0.94466462    -0.77500
O868        O  0.37687820  0.84364605  0.94424641    -1.13700
O869        O  0.44614764  0.85983626  0.93805215    -0.72800
C870        C  0.44867568  0.84510299  0.91272728     0.97900
C871        C  0.32167353  0.78221583  0.93992586     0.94300
Al872      Al  0.33285646  0.85881815  0.94277755     1.55600
O873        O  0.42430922  0.78926062  0.95256461    -0.77500
C874        C  0.37126554  0.92618479  0.94481056     0.98400
C875        C  0.34185942  0.84142023  0.88162084     0.93300
O876        O  0.35711891  0.81392624  0.89078943    -0.82800
O877        O  0.34895568  0.19804218  0.65992454    -0.82300
C878        C  0.34839952  0.14612462  0.77539296     0.97100
O879        O  0.32722035  0.15881205  0.75611060    -0.71400
O880        O  0.30831520  0.19765781  0.70996692    -0.75000
Al881      Al  0.33030114  0.15310012  0.71397465     1.49000
C882        C  0.31996914  0.22736482  0.71783196     0.92400
O883        O  0.42071715  0.22502543  0.71681937    -0.81200
O884        O  0.44312816  0.15576599  0.70453249    -0.74700
Al885      Al  0.38335155  0.20766946  0.69147743     1.90100
O886        O  0.42070443  0.18920542  0.75563236    -0.73800
O887        O  0.39840931  0.10411045  0.71550275    -0.73700
O888        O  0.37860884  0.13632881  0.76794145    -0.79300
O889        O  0.34144406  0.10515145  0.71874558    -0.77500
O890        O  0.37396359  0.16952706  0.71339647    -1.13700
O891        O  0.33080017  0.14518749  0.67180806    -0.72800
C892        C  0.33784240  0.16803904  0.65206265     0.97900
C893        C  0.43236825  0.21626486  0.74260670     0.94300
Al894      Al  0.40749556  0.14802128  0.73424005     1.55600
O895        O  0.35189691  0.23507818  0.71434887    -0.77500
C896        C  0.36917126  0.08841094  0.71505497     0.98400
C897        C  0.44217117  0.16736488  0.67761963     0.93300
O898        O  0.41584910  0.18377697  0.66745084    -0.82800
O899        O  0.34432094  0.18571570  0.90835831    -0.82300
C900        C  0.34790837  0.14000933  0.52511276     0.97100
O901        O  0.32573095  0.15009440  0.00540100    -0.71400
O902        O  0.30395487  0.18654021  0.95843810    -0.75000
Al903      Al  0.32734646  0.14191764  0.96338149     1.49000
C904        C  0.31443819  0.21791503  0.96198983     0.92400
O905        O  0.41666846  0.21526422  0.96335816    -0.81200
O906        O  0.44017035  0.14652540  0.95212645    -0.74700
Al907      Al  0.37902702  0.19674348  0.93870808     1.90100
O908        O  0.41739532  0.18035469  0.00286563    -0.73800
O909        O  0.39677163  0.09435603  0.96343844    -0.73700
O910        O  0.37682623  0.12710887  0.51730092    -0.79300
O911        O  0.34008722  0.09302818  0.96851844    -0.77500
O912        O  0.37060369  0.15911924  0.96152439    -1.13700
O913        O  0.32650127  0.13286922  0.92143881    -0.72800
C914        C  0.33217825  0.15586389  0.90147819     0.97900
C915        C  0.42886514  0.20702431  0.98913387     0.94300
Al916      Al  0.40492315  0.13854446  0.98223582     1.55600
O917        O  0.34681820  0.22506308  0.96040451    -0.77500
C918        C  0.36825102  0.07746522  0.96255021     0.98400
C919        C  0.43882834  0.15734592  0.92498576     0.93300
O920        O  0.41179437  0.17249541  0.91467735    -0.82800
O921        O  0.58314149  0.83090329  0.60625594    -0.82300
C922        C  0.65613955  0.88180725  0.50474200     0.97100
O923        O  0.62500959  0.88898781  0.51176145    -0.71400
O924        O  0.58343233  0.83414681  0.51843336    -0.75000
Al925      Al  0.59443054  0.87369640  0.54314767     1.49000
C926        C  0.57117654  0.80595884  0.52912431     0.92400
O927        O  0.65295669  0.78621848  0.56156167    -0.81200
O928        O  0.66794458  0.87286828  0.61056555    -0.74700
Al929      Al  0.61802707  0.81095495  0.58285337     1.90100
O930        O  0.69379221  0.82578279  0.56993397    -0.73800
O931        O  0.65775915  0.91766053  0.56442504    -0.73700
O932        O  0.67687398  0.86794596  0.52396237    -0.79300
O933        O  0.60066907  0.91680681  0.56468372    -0.77500
O934        O  0.62753610  0.85143028  0.56415662    -1.13700
O935        O  0.55731365  0.86161667  0.57032240    -0.72800
C936        C  0.55615793  0.84507436  0.59526018     0.97900
C937        C  0.68494961  0.79436694  0.56499723     0.94300
Al938      Al  0.67058677  0.86953027  0.56698009     1.55600
O939        O  0.58271307  0.79443557  0.55420912    -0.77500
C940        C  0.62924843  0.93372871  0.56625463     0.98400
C941        C  0.66202884  0.84680550  0.62782437     0.93300
O942        O  0.64911598  0.81890534  0.61685470    -0.82800
O943        O  0.65902030  0.82400360  0.77285102    -0.82300
C944        C  0.67357809  0.89824422  0.87764600     0.97100
O945        O  0.69301372  0.88021488  0.86105881    -0.71400
O946        O  0.70542729  0.83054951  0.82185332    -0.75000
Al947      Al  0.68751825  0.87787251  0.81767624     1.49000
C948        C  0.69147724  0.80313558  0.83316428     0.92400
O949        O  0.59085772  0.81824899  0.83711834    -0.81200
O950        O  0.57326114  0.88124988  0.81386283    -0.74700
Al951      Al  0.62744667  0.82473359  0.80673953     1.90100
O952        O  0.60489282  0.86051402  0.86797872    -0.73800
O953        O  0.62140389  0.92838598  0.80937031    -0.73700
O954        O  0.64738932  0.91351118  0.86599007    -0.79300
O955        O  0.67862173  0.92846255  0.81349878    -0.77500
O956        O  0.64301082  0.86544857  0.82060173    -1.13700
O957        O  0.68448407  0.87585070  0.77438962    -0.72800
C958        C  0.67325120  0.84985647  0.75932395     0.97900
C959        C  0.58520953  0.83527326  0.86112184     0.94300
Al960      Al  0.61392020  0.89381038  0.83804788     1.55600
O961        O  0.65858098  0.79919875  0.83242345    -0.77500
C962        C  0.65010584  0.94430861  0.80735663     0.98400
C963        C  0.57073875  0.86592293  0.78867323     0.93300
O964        O  0.59506484  0.84655875  0.77990193    -0.82800
O965        O  0.65622766  0.20177661  0.61070522    -0.82300
C966        C  0.64822612  0.14392294  0.99911354     0.97100
O967        O  0.67189011  0.15520644  0.51821147    -0.71400
O968        O  0.69217777  0.19821716  0.55964670    -0.75000
Al969      Al  0.67041537  0.15210742  0.56029240     1.49000
C970        C  0.67933731  0.22664477  0.54934740     0.92400
O971        O  0.57819689  0.22197947  0.55800026    -0.81200
O972        O  0.55941283  0.15356153  0.57411318    -0.74700
Al973      Al  0.61870504  0.20739864  0.58117433     1.90100
O974        O  0.57849463  0.18593847  0.52015222    -0.73800
O975        O  0.60147210  0.10218698  0.56168976    -0.73700
O976        O  0.61942901  0.13401871  0.50726446    -0.79300
O977        O  0.65844890  0.10282054  0.55933813    -0.77500
O978        O  0.62697303  0.16800608  0.56119874    -1.13700
O979        O  0.67192534  0.14766835  0.60300766    -0.72800
C980        C  0.66689775  0.17262767  0.62085341     0.97900
C981        C  0.56569773  0.21199139  0.53295084     0.94300
Al982      Al  0.59247138  0.14560426  0.54233240     1.55600
O983        O  0.64754441  0.23362825  0.55402643    -0.77500
C984        C  0.63002721  0.08611941  0.56284079     0.98400
C985        C  0.56209070  0.16624109  0.60057680     0.93300
O986        O  0.58892954  0.18375871  0.60872841    -0.82800
O987        O  0.65342283  0.19920027  0.86670148    -0.82300
C988        C  0.65289451  0.16031015  0.74905643     0.97100
O989        O  0.67427976  0.17173805  0.76894981    -0.71400
O990        O  0.69275478  0.20444501  0.81915191    -0.75000
Al991      Al  0.67188017  0.16030908  0.81082353     1.49000
C992        C  0.68158020  0.23455062  0.81267205     0.92400
O993        O  0.57959111  0.22815437  0.81328058    -0.81200
O994        O  0.56031229  0.15474875  0.82295079    -0.74700
Al995      Al  0.61816071  0.21030928  0.83664132     1.90100
O996        O  0.57847751  0.19497511  0.77328077    -0.73800
O997        O  0.60648318  0.10746261  0.80650564    -0.73700
O998        O  0.62324663  0.14770954  0.75626268    -0.79300
O999        O  0.66293060  0.11299675  0.80174363    -0.77500
O1000       O  0.62784381  0.17442802  0.81277960    -1.13700
O1001       O  0.67120937  0.14737280  0.85240324    -0.72800
C1002       C  0.66449584  0.16882225  0.87307202     0.97900
C1003       C  0.56664611  0.22030241  0.78783764     0.94300
Al1004     Al  0.59474083  0.15290624  0.79146618     1.55600
O1005       O  0.64919647  0.24092318  0.81460433    -0.77500
C1006       C  0.63631663  0.09391206  0.80441268     0.98400
C1007       C  0.56107384  0.16519255  0.85014581     0.93300
O1008       O  0.58658089  0.18328284  0.86017892    -0.82800
O1009       O  0.80708190  0.66377151  0.66609508    -0.82300
C1010       C  0.88192144  0.67854627  0.56314850     0.97100
O1011       O  0.86310231  0.69768781  0.57938225    -0.71400
O1012       O  0.81383731  0.70969565  0.61853062    -0.75000
Al1013     Al  0.86074020  0.69312044  0.62260399     1.49000
C1014       C  0.78779147  0.69574532  0.60511271     0.92400
O1015       O  0.80364322  0.59571400  0.60139474    -0.81200
O1016       O  0.86852802  0.57979456  0.62836320    -0.74700
Al1017     Al  0.80869457  0.63209555  0.63189663     1.90100
O1018       O  0.84864831  0.60698966  0.57293454    -0.73800
O1019       O  0.91375696  0.63016276  0.63310835    -0.73700
O1020       O  0.89823312  0.65309031  0.57506890    -0.79300
O1021       O  0.91083709  0.68695139  0.62707750    -0.77500
O1022       O  0.84980584  0.64805356  0.61960364    -1.13700
O1023       O  0.85847405  0.69040924  0.66562716    -0.72800
C1024       C  0.83251302  0.67864565  0.68015343     0.97900
C1025       C  0.82177000  0.58913811  0.57838450     0.94300
Al1026     Al  0.88005689  0.61962412  0.60364806     1.55600
O1027       O  0.78400526  0.66289447  0.60520167    -0.77500
C1028       C  0.92790154  0.65989139  0.63463371     0.98400
C1029       C  0.84993665  0.57616076  0.65151975     0.93300
O1030       O  0.82883806  0.59952069  0.65913814    -0.82800
O1031       O  0.81975009  0.58842552  0.83398112    -0.82300
C1032       C  0.87077917  0.66326419  0.93513132     0.97100
O1033       O  0.87748411  0.63171527  0.92903987    -0.71400
O1034       O  0.82197735  0.59098581  0.92162674    -0.75000
Al1035     Al  0.86214023  0.60056754  0.89769868     1.49000
C1036       C  0.79445704  0.57780877  0.91021342     0.92400
O1037       O  0.77547388  0.66068396  0.87694596    -0.81200
O1038       O  0.86249343  0.67246559  0.82851239    -0.74700
Al1039     Al  0.80001063  0.62424482  0.85668525     1.90100
O1040       O  0.81623161  0.70035734  0.86875509    -0.73800
O1041       O  0.90808547  0.66195612  0.87532909    -0.73700
O1042       O  0.85829103  0.68371477  0.91508311    -0.79300
O1043       O  0.90588360  0.60493568  0.87733040    -0.77500
O1044       O  0.84071346  0.63354534  0.87568388    -1.13700
O1045       O  0.85008387  0.56313792  0.87058389    -0.72800
C1046       C  0.83411657  0.56168940  0.84527806     0.97900
C1047       C  0.78440076  0.69247178  0.87289814     0.94300
Al1048     Al  0.85975104  0.67610070  0.87224431     1.55600
O1049       O  0.78292220  0.58938921  0.88515539    -0.77500
C1050       C  0.92362309  0.63288920  0.87520030     0.98400
C1051       C  0.83580758  0.66691619  0.81154697     0.93300
O1052       O  0.80816405  0.65428738  0.82275210    -0.82800
O1053       O  0.18981773  0.65948444  0.58469054    -0.82300
C1054       C  0.13885786  0.67417059  0.69683492     0.97100
O1055       O  0.15303841  0.69285876  0.67659032    -0.71400
O1056       O  0.19216959  0.70361518  0.62910100    -0.75000
Al1057     Al  0.14542710  0.68655498  0.63419473     1.49000
C1058       C  0.22019715  0.69123258  0.64033366     0.92400
O1059       O  0.20564547  0.58883481  0.64663614    -0.81200
O1060       O  0.13617320  0.57323463  0.63069892    -0.74700
Al1061     Al  0.19472056  0.62702823  0.61839653     1.90100
O1062       O  0.17030819  0.60212252  0.68238567    -0.73800
O1063       O  0.08969043  0.62328838  0.63735338    -0.73700
O1064       O  0.12191607  0.64651625  0.68999821    -0.79300
O1065       O  0.09612605  0.68025029  0.63934210    -0.77500
O1066       O  0.15675450  0.64199712  0.63686393    -1.13700
O1067       O  0.13746648  0.68135295  0.59184458    -0.72800
C1068       C  0.16066124  0.67044583  0.57417664     0.97900
C1069       C  0.19223732  0.58177337  0.67195424     0.94300
Al1070     Al  0.13134546  0.61315341  0.65851610     1.55600
O1071       O  0.22445876  0.65834081  0.64144576    -0.77500
C1072       C  0.07667891  0.65343532  0.63763469     0.98400
C1073       C  0.14896718  0.57144197  0.60431135     0.93300
O1074       O  0.16848799  0.59568051  0.59454819    -0.82800
O1075       O  0.18991192  0.65658911  0.83315959    -0.82300
C1076       C  0.13622802  0.64868516  0.94682432     0.97100
O1077       O  0.14716642  0.67143378  0.92849537    -0.71400
O1078       O  0.18775088  0.69516550  0.88703328    -0.75000
Al1079     Al  0.14259887  0.67144444  0.88622324     1.49000
C1080       C  0.21771339  0.68346425  0.89438870     0.92400
O1081       O  0.21555299  0.58292981  0.88864895    -0.81200
O1082       O  0.14839463  0.55924921  0.87208855    -0.74700
Al1083     Al  0.19876384  0.62099497  0.86374074     1.90100
O1084       O  0.17816303  0.58162908  0.92551471    -0.73800
O1085       O  0.09367484  0.60089580  0.88194893    -0.73700
O1086       O  0.12372232  0.61981837  0.93749019    -0.79300
O1087       O  0.09350034  0.65778785  0.88706199    -0.77500
O1088       O  0.15933393  0.62835238  0.88389061    -1.13700
O1089       O  0.13728083  0.67499739  0.84362425    -0.72800
C1090       C  0.16124821  0.67047799  0.82479493     0.97900
C1091       C  0.20545290  0.57039983  0.91351647     0.94300
Al1092     Al  0.13755568  0.59327087  0.90252494     1.55600
O1093       O  0.22499736  0.65198525  0.88910085    -0.77500
C1094       C  0.07702449  0.62932800  0.88219431     0.98400
C1095       C  0.16383576  0.55981149  0.84688665     0.93300
O1096       O  0.17723339  0.58804649  0.83709152    -0.82800
O1097       O  0.80478827  0.35636912  0.69739438    -0.82300
C1098       C  0.87731886  0.34159352  0.80434496     0.97100
O1099       O  0.85848316  0.32273681  0.78712177    -0.71400
O1100       O  0.80901455  0.31136387  0.74671606    -0.75000
Al1101     Al  0.85662880  0.32717467  0.74393909     1.49000
C1102       C  0.78285162  0.32645347  0.75779959     0.92400
O1103       O  0.80188974  0.42547811  0.76061427    -0.81200
O1104       O  0.86732069  0.44067669  0.73798668    -0.74700
Al1105     Al  0.80683631  0.38868687  0.73092358     1.90100
O1106       O  0.84481984  0.41335620  0.79231893    -0.73800
O1107       O  0.91182057  0.39014803  0.73599146    -0.73700
O1108       O  0.89401560  0.36741575  0.79337021    -0.79300
O1109       O  0.90687198  0.33319959  0.74052691    -0.77500
O1110       O  0.84690909  0.37230427  0.74595915    -1.13700
O1111       O  0.85508426  0.32895910  0.70115813    -0.72800
C1112       C  0.82995017  0.34050065  0.68520202     0.97900
C1113       C  0.81866367  0.43136367  0.78506756     0.94300
Al1114     Al  0.87727102  0.40072912  0.76354323     1.55600
O1115       O  0.78002888  0.35924568  0.75629057    -0.77500
C1116       C  0.92426456  0.36012988  0.73267803     0.98400
C1117       C  0.85011577  0.44390598  0.71344277     0.93300
O1118       O  0.82948428  0.42005304  0.70450837    -0.82800
O1119       O  0.81547830  0.42838090  0.53399589    -0.82300
C1120       C  0.86351895  0.35279658  0.93257649     0.97100
O1121       O  0.87202699  0.38367195  0.94015912    -0.71400
O1122       O  0.81840607  0.42595868  0.94615202    -0.75000
Al1123     Al  0.85768493  0.41445207  0.97144903     1.49000
C1124       C  0.79116933  0.43930739  0.95670284     0.92400
O1125       O  0.76845906  0.35675845  0.48944875    -0.81200
O1126       O  0.85562796  0.34184101  0.53833982    -0.74700
Al1127     Al  0.79479129  0.39268918  0.51029319     1.90100
O1128       O  0.80771671  0.31627918  0.49745003    -0.73800
O1129       O  0.90099456  0.35194047  0.49330369    -0.73700
O1130       O  0.84881327  0.33225793  0.95126474    -0.79300
O1131       O  0.90039441  0.40786161  0.99394605    -0.77500
O1132       O  0.83503785  0.38263995  0.49224351    -1.13700
O1133       O  0.84794947  0.45253371  0.49905345    -0.72800
C1134       C  0.83156208  0.45460013  0.52354262     0.97900
C1135       C  0.77602106  0.32487593  0.49420614     0.94300
Al1136     Al  0.85207198  0.33941261  0.49479917     1.55600
O1137       O  0.77919706  0.42781020  0.48129246    -0.77500
C1138       C  0.91758422  0.38048302  0.49638421     0.98400
C1139       C  0.82978337  0.34822568  0.55506543     0.93300
O1140       O  0.80258348  0.36236495  0.54407786    -0.82800
O1141       O  0.18674282  0.35626445  0.54200712    -0.82300
C1142       C  0.12148673  0.35579356  0.93000391     0.97100
O1143       O  0.13344381  0.33360910  0.94880899    -0.71400
O1144       O  0.17842102  0.31401638  0.99160207    -0.75000
Al1145     Al  0.13359623  0.33703766  0.99213510     1.49000
C1146       C  0.20930070  0.32435746  0.98585812     0.92400
O1147       O  0.20739748  0.42645667  0.98624395    -0.81200
O1148       O  0.14082974  0.45081700  0.50107145    -0.74700
Al1149     Al  0.19249517  0.39015120  0.51106605     1.90100
O1150       O  0.16962271  0.42662106  0.94870825    -0.73800
O1151       O  0.08612423  0.40758387  0.99165798    -0.73700
O1152       O  0.11474242  0.38656390  0.93822903    -0.79300
O1153       O  0.08577216  0.35165467  0.49233366    -0.77500
O1154       O  0.15131634  0.38031365  0.99167233    -1.13700
O1155       O  0.13297636  0.33738210  0.53572038    -0.72800
C1156       C  0.15959276  0.34243569  0.55266485     0.97900
C1157       C  0.19762751  0.43781218  0.96075084     0.94300
Al1158     Al  0.12942140  0.41460927  0.97172648     1.55600
O1159       O  0.21792342  0.35738360  0.48716965    -0.77500
C1160       C  0.07011512  0.38054069  0.49447642     0.98400
C1161       C  0.15334995  0.44964675  0.52776041     0.93300
O1162       O  0.17060165  0.42333488  0.53699110    -0.82800
O1163       O  0.16890642  0.41944209  0.70235820    -0.82300
C1164       C  0.11632128  0.34432026  0.80029627     0.97100
O1165       O  0.10031384  0.36932913  0.78732348    -0.71400
O1166       O  0.15246924  0.41254317  0.78936675    -0.75000
Al1167     Al  0.12028174  0.40198007  0.75881240     1.49000
C1168       C  0.17987098  0.42987254  0.78432303     0.92400
O1169       O  0.21685394  0.35586683  0.75312044    -0.81200
O1170       O  0.13814176  0.32833533  0.69863429    -0.74700
Al1171     Al  0.19017561  0.38733960  0.72892539     1.90100
O1172       O  0.18383408  0.30987842  0.74381161    -0.73800
O1173       O  0.08761930  0.33548060  0.73712745    -0.73700
O1174       O  0.13585762  0.32486070  0.78489364    -0.79300
O1175       O  0.08573212  0.39225802  0.72903773    -0.77500
O1176       O  0.14952223  0.37230157  0.74290344    -1.13700
O1177       O  0.13452253  0.44249051  0.73529516    -0.72800
C1178       C  0.15385144  0.44567764  0.71249953     0.97900
C1179       C  0.21345469  0.32320588  0.75009023     0.94300
Al1180     Al  0.13733696  0.32762425  0.74137445     1.55600
O1181       O  0.19749513  0.42371359  0.76067024    -0.77500
C1182       C  0.07126291  0.36240139  0.72785579     0.98400
C1183       C  0.16314579  0.33924342  0.68263126     0.93300
O1184       O  0.18894959  0.35587201  0.69450002    -0.82800
C1185       C  0.08895693  0.36095153  0.84884379    -0.21800
C1186       C  0.11348829  0.34049172  0.83373079    -0.09800
C1187       C  0.13792677  0.32123102  0.85122715     0.29100
C1188       C  0.13896194  0.32428881  0.88291809    -0.21800
C1189       C  0.11605520  0.34690807  0.89761136    -0.09800
C1190       C  0.09027873  0.36433363  0.88025167     0.29100
F1191       F  0.06699684  0.38573575  0.89353745    -0.20300
H1192       H  0.06962340  0.37591610  0.83620179     0.17400
H1193       H  0.15913694  0.31072368  0.89576931     0.17400
F1194       F  0.16239500  0.30145508  0.83772952    -0.20300
C1195       C  0.12864255  0.33286813  0.60172673    -0.21800
C1196       C  0.15988185  0.33426691  0.58552857    -0.09800
C1197       C  0.19207032  0.33295646  0.60174262     0.29100
C1198       C  0.19284825  0.33306761  0.63329178    -0.21800
C1199       C  0.16173850  0.33376645  0.64951328    -0.09800
C1200       C  0.12946261  0.33253285  0.63346103     0.29100
F1201       F  0.09870052  0.33366166  0.64831480    -0.20300
H1202       H  0.10359782  0.33412981  0.58989582     0.17400
H1203       H  0.21796202  0.33356672  0.64508550     0.17400
F1204       F  0.22305594  0.33296266  0.58714499    -0.20300
C1205       C  0.97571855  0.41214181  0.50081527    -0.21800
C1206       C  0.95664925  0.38041551  0.49994449    -0.09800
C1207       C  0.97465358  0.34754788  0.99887205     0.29100
C1208       C  0.01135797  0.34791430  0.99854994    -0.21800
C1209       C  0.03133983  0.38095456  0.49891376    -0.09800
C1210       C  0.01251014  0.41253434  0.50032793     0.29100
F1211       F  0.02942548  0.44396069  0.50031728    -0.20300
H1212       H  0.96211575  0.43688227  0.50092363     0.17400
H1213       H  0.02481643  0.32316003  0.99736645     0.17400
F1214       F  0.95781528  0.31610495  0.99774025    -0.20300
C1215       C  0.97812460  0.38854140  0.71348707    -0.21800
C1216       C  0.96057468  0.35766351  0.72228937    -0.09800
C1217       C  0.97956414  0.32648392  0.72525809     0.29100
C1218       C  0.01604318  0.32748586  0.72385513    -0.21800
C1219       C  0.03384529  0.35949821  0.71947721    -0.09800
C1220       C  0.01444823  0.38959661  0.71213617     0.29100
F1221       F  0.03041433  0.42079874  0.70627785    -0.20300
H1222       H  0.96399102  0.41272517  0.70992182     0.17400
H1223       H  0.03035896  0.30370536  0.72869255     0.17400
F1224       F  0.96338119  0.29571146  0.73212429    -0.20300
C1225       C  0.90359335  0.35371564  0.85521566    -0.21800
C1226       C  0.87816523  0.33594117  0.83772566    -0.09800
C1227       C  0.85080071  0.31822825  0.85279479     0.29100
C1228       C  0.84737610  0.32129611  0.88431009    -0.21800
C1229       C  0.87106935  0.34204917  0.90116292    -0.09800
C1230       C  0.90019409  0.35673627  0.88645594     0.29100
F1231       F  0.92465764  0.37558014  0.90213681    -0.20300
H1232       H  0.92525465  0.36711207  0.84447072     0.17400
H1233       H  0.82484995  0.30956806  0.89513334     0.17400
F1234       F  0.82574510  0.30043663  0.83694296    -0.20300
C1235       C  0.86204414  0.33803661  0.60438902    -0.21800
C1236       C  0.83033091  0.34035393  0.58799073    -0.09800
C1237       C  0.79860800  0.33897357  0.60392621     0.29100
C1238       C  0.79877873  0.33745873  0.63543579    -0.21800
C1239       C  0.83037716  0.33682196  0.65192207    -0.09800
C1240       C  0.86216429  0.33635128  0.63611400     0.29100
F1241       F  0.89338254  0.33680302  0.65127934    -0.20300
H1242       H  0.88674903  0.33938658  0.59277937     0.17400
H1243       H  0.77403573  0.33767143  0.64702157     0.17400
F1244       F  0.76716979  0.34011077  0.58914712    -0.20300
C1245       C  0.22052956  0.50883914  0.90547922    -0.21800
C1246       C  0.22028387  0.53754120  0.92521682    -0.09800
C1247       C  0.22277109  0.53151092  0.95645796     0.29100
C1248       C  0.22137873  0.49728826  0.96776361    -0.21800
C1249       C  0.21496811  0.46909327  0.94812066    -0.09800
C1250       C  0.21671138  0.47473037  0.91682085     0.29100
F1251       F  0.21147615  0.44784359  0.89731907    -0.20300
H1252       H  0.21881445  0.51300729  0.88130738     0.17400
H1253       H  0.22047059  0.49338394  0.99199607     0.17400
F1254       F  0.22230328  0.55870358  0.97602038    -0.20300
C1255       C  0.16590274  0.46257951  0.83039894    -0.21800
C1256       C  0.18545996  0.46108192  0.80376726    -0.09800
C1257       C  0.20025841  0.49236217  0.79255325     0.29100
C1258       C  0.19254519  0.52458589  0.80610176    -0.21800
C1259       C  0.17011336  0.52614497  0.83109741    -0.09800
C1260       C  0.15766838  0.49440364  0.84348912     0.29100
F1261       F  0.13687512  0.49380249  0.86807155    -0.20300
H1262       H  0.15443149  0.43896581  0.83995665     0.17400
H1263       H  0.20384020  0.54837548  0.79678195     0.17400
F1264       F  0.22033507  0.49211601  0.76755484    -0.20300
C1265       C  0.12018504  0.65602698  0.53102634    -0.21800
C1266       C  0.15316560  0.66817115  0.54140883    -0.09800
C1267       C  0.17975539  0.67418644  0.52046783     0.29100
C1268       C  0.17328252  0.66907182  0.98955786    -0.21800
C1269       C  0.14096652  0.65531532  0.97937928    -0.09800
C1270       C  0.11497214  0.64732486  0.00045229     0.29100
F1271       F  0.08361180  0.63373900  0.99127263    -0.20300
H1272       H  0.09958300  0.65044950  0.54695053     0.17400
H1273       H  0.19383137  0.67489736  0.97362681     0.17400
F1274       F  0.21205849  0.68517557  0.52974860    -0.20300
C1275       C  0.18383894  0.68155107  0.77269747    -0.21800
C1276       C  0.15533950  0.67957145  0.79237377    -0.09800
C1277       C  0.12111455  0.68187139  0.78000134     0.29100
C1278       C  0.11573201  0.68249411  0.74859556    -0.21800
C1279       C  0.14423304  0.68235288  0.72907491    -0.09800
C1280       C  0.17839255  0.68331903  0.74134249     0.29100
F1281       F  0.20646879  0.68253022  0.72295467    -0.20300
H1282       H  0.21044127  0.68004175  0.78152235     0.17400
H1283       H  0.08921734  0.68152941  0.73945312     0.17400
F1284       F  0.09273012  0.68077796  0.79803790    -0.20300
C1285       C  0.19540211  0.51761441  0.66552508    -0.21800
C1286       C  0.19285380  0.54624276  0.68505000    -0.09800
C1287       C  0.17835102  0.54093779  0.71381462     0.29100
C1288       C  0.16345091  0.50877500  0.72146739    -0.21800
C1289       C  0.16447372  0.48057137  0.70147475    -0.09800
C1290       C  0.18150847  0.48493936  0.67369086     0.29100
F1291       F  0.18329456  0.45811799  0.65382783    -0.20300
H1292       H  0.20549298  0.52114527  0.64295964     0.17400
H1293       H  0.15163911  0.50580057  0.74342586     0.17400
F1294       F  0.17612512  0.56772771  0.73369055    -0.20300
C1295       C  0.15144135  0.54362547  0.55376040    -0.21800
C1296       C  0.14400875  0.54021668  0.58469582    -0.09800
C1297       C  0.13673398  0.50652694  0.59638969     0.29100
C1298       C  0.14007024  0.47682579  0.57801327    -0.21800
C1299       C  0.14896791  0.48048942  0.54741510    -0.09800
C1300       C  0.15343216  0.51432362  0.53528607     0.29100
F1301       F  0.16129228  0.51912001  0.50573986    -0.20300
H1302       H  0.15666344  0.56915096  0.54387100     0.17400
H1303       H  0.13555184  0.45103406  0.58759198     0.17400
F1304       F  0.12745235  0.50215676  0.62562839    -0.20300
C1305       C  0.77652194  0.51549748  0.90259253    -0.21800
C1306       C  0.78085017  0.54392324  0.92252413    -0.09800
C1307       C  0.78050577  0.53700077  0.95374426     0.29100
C1308       C  0.77847328  0.50232421  0.96455358    -0.21800
C1309       C  0.77923117  0.47378361  0.94456644    -0.09800
C1310       C  0.77704715  0.48073246  0.91338610     0.29100
F1311       F  0.77772418  0.45401967  0.89336696    -0.20300
H1312       H  0.77646594  0.52004619  0.87844171     0.17400
H1313       H  0.77986426  0.49775019  0.98867451     0.17400
F1314       F  0.78438151  0.56356240  0.97375452    -0.20300
C1315       C  0.98080170  0.59982522  0.87350217    -0.21800
C1316       C  0.96293434  0.63191834  0.87435376    -0.09800
C1317       C  0.98321771  0.66292455  0.87678525     0.29100
C1318       C  0.01992587  0.66169296  0.87846497    -0.21800
C1319       C  0.03785425  0.62967103  0.87802669    -0.09800
C1320       C  0.01766110  0.59859605  0.87531745     0.29100
F1321       F  0.03331503  0.56684653  0.87518871    -0.20300
H1322       H  0.96618483  0.57543943  0.87201065     0.17400
H1323       H  0.03435168  0.68610675  0.88077056     0.17400
F1324       F  0.96770560  0.69464531  0.87861449    -0.20300
C1325       C  0.81326373  0.52673897  0.80110699    -0.21800
C1326       C  0.82868552  0.52778692  0.83019578    -0.09800
C1327       C  0.83480906  0.49615743  0.84586008     0.29100
C1328       C  0.82673211  0.46435304  0.83220644    -0.21800
C1329       C  0.81338418  0.46328639  0.80246340    -0.09800
C1330       C  0.80573787  0.49480936  0.78724375     0.29100
F1331       F  0.79396551  0.49490743  0.75809962    -0.20300
H1332       H  0.80771156  0.55071533  0.78872481     0.17400
H1333       H  0.83319638  0.44032329  0.84419525     0.17400
F1334       F  0.84865801  0.49573782  0.87433764    -0.20300
C1335       C  0.88215314  0.52924763  0.67930871    -0.21800
C1336       C  0.85054512  0.54292745  0.66806796    -0.09800
C1337       C  0.81940431  0.52352621  0.67089233     0.29100
C1338       C  0.81993922  0.49064900  0.68468584    -0.21800
C1339       C  0.85131946  0.47714091  0.69663647    -0.09800
C1340       C  0.88248087  0.49675466  0.69415576     0.29100
F1341       F  0.91314204  0.48427482  0.70562101    -0.20300
H1342       H  0.90636771  0.54393617  0.67690645     0.17400
H1343       H  0.79559349  0.47609270  0.68677258     0.17400
F1344       F  0.78863293  0.53602911  0.65961844    -0.20300
C1345       C  0.98544331  0.69007165  0.63026210    -0.21800
C1346       C  0.96560625  0.66169556  0.64118178    -0.09800
C1347       C  0.98279607  0.63207902  0.65308255     0.29100
C1348       C  0.01893003  0.62972587  0.65154292    -0.21800
C1349       C  0.03862858  0.65705432  0.63881257    -0.09800
C1350       C  0.02184945  0.68789646  0.62920528     0.29100
F1351       F  0.04036311  0.71513915  0.61744735    -0.20300
H1352       H  0.97272156  0.71304934  0.62089747     0.17400
H1353       H  0.03152769  0.60632863  0.66024216     0.17400
F1354       F  0.96462166  0.60468971  0.66506126    -0.20300
C1355       C  0.86343325  0.68876544  0.73044159    -0.21800
C1356       C  0.83247656  0.68059141  0.71391356    -0.09800
C1357       C  0.80257251  0.67074431  0.73014786     0.29100
C1358       C  0.80405547  0.66778531  0.76163722    -0.21800
C1359       C  0.83530593  0.67425200  0.77822248    -0.09800
C1360       C  0.86493486  0.68563716  0.76222823     0.29100
F1361       F  0.89556971  0.69269087  0.77704535    -0.20300
H1362       H  0.88699936  0.69633395  0.71866463     0.17400
H1363       H  0.78047751  0.65938068  0.77299313     0.17400
F1364       F  0.77188229  0.66295439  0.71566189    -0.20300
C1365       C  0.85292000  0.69500207  0.98186916    -0.21800
C1366       C  0.87766299  0.67522446  0.96644321    -0.09800
C1367       C  0.90710017  0.66263944  0.98246907     0.29100
C1368       C  0.90950093  0.66582988  0.51398982    -0.21800
C1369       C  0.88322401  0.68307477  0.52979633    -0.09800
C1370       C  0.85534068  0.69829093  0.51315315     0.29100
F1371       F  0.82895638  0.71450799  0.52749570    -0.20300
H1372       H  0.82997771  0.70483704  0.96993576     0.17400
H1373       H  0.93134813  0.65398388  0.52608294     0.17400
F1374       F  0.93211582  0.64436824  0.96812684    -0.20300
C1375       C  0.84072178  0.51896667  0.52285255    -0.21800
C1376       C  0.82804091  0.48909222  0.53796623    -0.09800
C1377       C  0.80842665  0.49337946  0.56437193     0.29100
C1378       C  0.80295778  0.52686540  0.57583218    -0.21800
C1379       C  0.81690746  0.55652785  0.56126162    -0.09800
C1380       C  0.83497651  0.55226434  0.53409031     0.29100
F1381       F  0.84867401  0.58024374  0.51907560    -0.20300
H1382       H  0.85495198  0.51670429  0.50200976     0.17400
H1383       H  0.78971557  0.52935720  0.59713890     0.17400
F1384       F  0.79512801  0.46534303  0.57952836    -0.20300
C1385       C  0.69655369  0.29270905  0.78878002    -0.21800
C1386       C  0.70730417  0.26087046  0.80194034    -0.09800
C1387       C  0.74324611  0.25246647  0.80202685     0.29100
C1388       C  0.76713838  0.27410118  0.78755252    -0.21800
C1389       C  0.75634235  0.30510259  0.77337703    -0.09800
C1390       C  0.72099135  0.31496340  0.77483123     0.29100
F1391       F  0.70984088  0.34519193  0.76169331    -0.20300
H1392       H  0.66917094  0.29983613  0.78844809     0.17400
H1393       H  0.79439517  0.26647296  0.78746167     0.17400
F1394       F  0.75557886  0.22283152  0.81545916    -0.20300
C1395       C  0.73594472  0.24079775  0.52429185    -0.21800
C1396       C  0.70206716  0.25124594  0.53178533    -0.09800
C1397       C  0.69066712  0.28450073  0.52169698     0.29100
C1398       C  0.71389327  0.30768382  0.50704260    -0.21800
C1399       C  0.74866446  0.29797725  0.50156547    -0.09800
C1400       C  0.75880022  0.26348574  0.50926277     0.29100
F1401       F  0.78946612  0.25112689  0.00154466    -0.20300
H1402       H  0.74525925  0.21502327  0.53064030     0.17400
H1403       H  0.70514977  0.33385234  0.50138667     0.17400
F1404       F  0.65753277  0.29518040  0.52681871    -0.20300
C1405       C  0.67754482  0.17445558  0.95696211    -0.21800
C1406       C  0.65651484  0.14633566  0.96682711    -0.09800
C1407       C  0.64180881  0.12320809  0.94546505     0.29100
C1408       C  0.64738486  0.12890619  0.91463052    -0.21800
C1409       C  0.66668491  0.15824606  0.90488466    -0.09800
C1410       C  0.68209906  0.18075686  0.92622573     0.29100
F1411       F  0.70027112  0.20965046  0.91726704    -0.20300
H1412       H  0.68881443  0.19283802  0.97302736     0.17400
H1413       H  0.63463388  0.11183334  0.89828156     0.17400
F1414       F  0.62138565  0.09582502  0.95429946    -0.20300
C1415       C  0.65067704  0.13416917  0.69782693    -0.21800
C1416       C  0.66201152  0.16143067  0.71681777    -0.09800
C1417       C  0.67916596  0.19069813  0.70421679     0.29100
C1418       C  0.68241153  0.19370248  0.67279460    -0.21800
C1419       C  0.66986850  0.16695754  0.65376384    -0.09800
C1420       C  0.65500583  0.13659796  0.66661092     0.29100
F1421       F  0.64197768  0.11055553  0.64882047    -0.20300
H1422       H  0.63753174  0.11135336  0.70713423     0.17400
H1423       H  0.69369592  0.21735465  0.66324138     0.17400
F1424       F  0.69048481  0.21743703  0.72202675    -0.20300
C1425       C  0.70102176  0.74071324  0.85028673    -0.21800
C1426       C  0.71388047  0.77523014  0.84686942    -0.09800
C1427       C  0.74845828  0.78261687  0.85643805     0.29100
C1428       C  0.77007623  0.75584728  0.86738404    -0.21800
C1429       C  0.75813216  0.72085980  0.86885733    -0.09800
C1430       C  0.72288329  0.71371594  0.86099836     0.29100
F1431       F  0.71008096  0.68044523  0.86177873    -0.20300
H1432       H  0.67438948  0.73428183  0.84345501     0.17400
H1433       H  0.79692275  0.76239712  0.87344675     0.17400
F1434       F  0.76175335  0.81566348  0.85480386    -0.20300
C1435       C  0.67736585  0.00396788  0.80905382    -0.21800
C1436       C  0.64862215  0.98242915  0.80171495    -0.09800
C1437       C  0.61624587  0.99811052  0.79395426     0.29100
C1438       C  0.61238532  0.03424296  0.79537137    -0.21800
C1439       C  0.64069831  0.05565832  0.80379416    -0.09800
C1440       C  0.67358494  0.04031068  0.80997639     0.29100
F1441       F  0.70182489  0.06023670  0.81801156    -0.20300
H1442       H  0.70235603  0.99264845  0.81541073     0.17400
H1443       H  0.58713787  0.04549300  0.78975146     0.17400
F1444       F  0.58775452  0.97853195  0.78590133    -0.20300
C1445       C  0.70287962  0.73175775  0.57185495    -0.21800
C1446       C  0.71222707  0.76717765  0.56770917    -0.09800
C1447       C  0.74756516  0.77726553  0.57195891     0.29100
C1448       C  0.77193275  0.75333507  0.58298153    -0.21800
C1449       C  0.76201699  0.71872826  0.58973269    -0.09800
C1450       C  0.72762481  0.70756598  0.58262920     0.29100
F1451       F  0.71730087  0.67398618  0.58784628    -0.20300
H1452       H  0.67596124  0.72321253  0.56863234     0.17400
H1453       H  0.79854311  0.76235819  0.58720054     0.17400
F1454       F  0.75838421  0.81084671  0.56734798    -0.20300
C1455       C  0.59860732  0.99135474  0.57157357    -0.21800
C1456       C  0.62985145  0.97272333  0.56847380    -0.09800
C1457       C  0.66142254  0.99196394  0.56534690     0.29100
C1458       C  0.66134976  0.02864090  0.56461642    -0.21800
C1459       C  0.62998630  0.04726807  0.56684523    -0.09800
C1460       C  0.59855985  0.02809378  0.57084785     0.29100
F1461       F  0.56749962  0.04467523  0.57340040    -0.20300
H1462       H  0.57395106  0.97746813  0.57396275     0.17400
H1463       H  0.68592110  0.04244768  0.56141679     0.17400
F1464       F  0.69242995  0.97552323  0.56183977    -0.20300
C1465       C  0.69223505  0.86956838  0.95875118    -0.21800
C1466       C  0.66793218  0.89026961  0.97390625    -0.09800
C1467       C  0.65153822  0.91777493  0.95796232     0.29100
C1468       C  0.65686653  0.92242373  0.92713517    -0.21800
C1469       C  0.67811779  0.89947783  0.91108408    -0.09800
C1470       C  0.69726559  0.87399274  0.92746783     0.29100
F1471       F  0.71861575  0.85164882  0.91302686    -0.20300
H1472       H  0.70549810  0.84848618  0.97063390     0.17400
H1473       H  0.64222564  0.94271067  0.91540960     0.17400
F1474       F  0.62890052  0.93933706  0.97186149    -0.20300
C1475       C  0.67184972  0.81779033  0.71017560    -0.21800
C1476       C  0.67527284  0.84964620  0.72558567    -0.09800
C1477       C  0.67686009  0.88090038  0.70828822     0.29100
C1478       C  0.67400158  0.87999008  0.67646357    -0.21800
C1479       C  0.66936542  0.84802149  0.66119370    -0.09800
C1480       C  0.66906716  0.81683694  0.67860768     0.29100
F1481       F  0.66539619  0.78510190  0.66525475    -0.20300
H1482       H  0.67056021  0.79331741  0.72269520     0.17400
H1483       H  0.67404020  0.90443819  0.66385876     0.17400
F1484       F  0.67912459  0.91247384  0.72210448    -0.20300
C1485       C  0.25217385  0.23726506  0.96737602    -0.21800
C1486       C  0.28806698  0.24597201  0.96731771    -0.09800
C1487       C  0.29774350  0.28130124  0.97212761     0.29100
C1488       C  0.27216220  0.30676481  0.97745930    -0.21800
C1489       C  0.23632376  0.29778300  0.97813660    -0.09800
C1490       C  0.22670449  0.26257534  0.97261100     0.29100
F1491       F  0.19257189  0.25228321  0.97224594    -0.20300
H1492       H  0.24357893  0.21056131  0.96342487     0.17400
H1493       H  0.28053066  0.33350080  0.98156809     0.17400
F1494       F  0.33191116  0.29134556  0.97200330    -0.20300
C1495       C  0.50372836  0.15808373  0.91932142    -0.21800
C1496       C  0.47021290  0.15461876  0.90596655    -0.09800
C1497       C  0.46724454  0.15150081  0.87438062     0.29100
C1498       C  0.49718370  0.15293604  0.85657301    -0.21800
C1499       C  0.53056269  0.15837445  0.86975772    -0.09800
C1500       C  0.53359344  0.16045954  0.90148604     0.29100
F1501       F  0.56525833  0.16556077  0.91527360    -0.20300
H1502       H  0.50670455  0.16061123  0.94364188     0.17400
H1503       H  0.49401207  0.15143746  0.83217619     0.17400
F1504       F  0.43538616  0.14751230  0.86069849    -0.20300
C1505       C  0.48919929  0.22707438  0.97986527    -0.21800
C1506       C  0.46152847  0.22360918  0.00028132    -0.09800
C1507       C  0.46955613  0.22628502  0.53160774     0.29100
C1508       C  0.50435632  0.22823037  0.54197950    -0.21800
C1509       C  0.53202833  0.22576749  0.52154833    -0.09800
C1510       C  0.52392745  0.22710606  0.99037810     0.29100
F1511       F  0.55018236  0.22501833  0.97019490    -0.20300
H1512       H  0.48420154  0.22507558  0.95576130     0.17400
H1513       H  0.50957486  0.22717447  0.56612284     0.17400
F1514       F  0.44345381  0.22369984  0.55196330    -0.20300
C1515       C  0.30167556  0.28892040  0.72843458    -0.21800
C1516       C  0.29551628  0.25271027  0.73084018    -0.09800
C1517       C  0.26488805  0.24066710  0.74503724     0.29100
C1518       C  0.23968308  0.26429991  0.75415250    -0.21800
C1519       C  0.24436533  0.30036670  0.74940269    -0.09800
C1520       C  0.27625303  0.31268352  0.73751795     0.29100
F1521       F  0.28156068  0.34734360  0.73203864    -0.20300
H1522       H  0.32524223  0.29878706  0.71793685     0.17400
H1523       H  0.21547127  0.25420857  0.76339144     0.17400
F1524       F  0.25867771  0.20592596  0.74933086    -0.20300
C1525       C  0.50685411  0.16621432  0.67110130    -0.21800
C1526       C  0.47296363  0.16345338  0.65837928    -0.09800
C1527       C  0.46889685  0.15946580  0.62700137     0.29100
C1528       C  0.49822737  0.15871078  0.60866531    -0.21800
C1529       C  0.53211665  0.16285945  0.62111356    -0.09800
C1530       C  0.53625264  0.16644706  0.65264118     0.29100
F1531       F  0.56851982  0.17064034  0.66557257    -0.20300
H1532       H  0.51049925  0.16964468  0.69526190     0.17400
H1533       H  0.49426903  0.15628903  0.58444729     0.17400
F1534       F  0.43653325  0.15656183  0.61402463    -0.20300
C1535       C  0.31513774  0.16819085  0.81880819    -0.21800
C1536       C  0.33841792  0.14365459  0.80723207    -0.09800
C1537       C  0.35438688  0.11918992  0.82690842     0.29100
C1538       C  0.34882869  0.12091572  0.85791372    -0.21800
C1539       C  0.32811836  0.14749946  0.86956203    -0.09800
C1540       C  0.31046560  0.17050997  0.84990391     0.29100
F1541       F  0.29049501  0.19650422  0.86095854    -0.20300
H1542       H  0.30256923  0.18719298  0.80403723     0.17400
H1543       H  0.36307389  0.10344338  0.87300583     0.17400
F1544       F  0.37665520  0.09477942  0.81640953    -0.20300
C1545       C  0.32623490  0.18468258  0.59815975    -0.21800
C1546       C  0.33542904  0.15908766  0.61969216    -0.09800
C1547       C  0.34645921  0.12603905  0.60981285     0.29100
C1548       C  0.34973001  0.11946506  0.57890327    -0.21800
C1549       C  0.34093456  0.14525311  0.55742669    -0.09800
C1550       C  0.32841243  0.17769860  0.56726385     0.29100
F1551       F  0.32053895  0.20349993  0.54703300    -0.20300
H1552       H  0.31810687  0.21037143  0.60529621     0.17400
H1553       H  0.35970648  0.09447580  0.57173253     0.17400
F1554       F  0.35635258  0.10092219  0.63004134    -0.20300
C1555       C  0.47074801  0.23351318  0.78621110    -0.21800
C1556       C  0.46428824  0.23334381  0.75490878    -0.09800
C1557       C  0.49227813  0.24001232  0.73525954     0.29100
C1558       C  0.52668800  0.24032470  0.74651181    -0.21800
C1559       C  0.53338935  0.23589750  0.77752665    -0.09800
C1560       C  0.50510412  0.23571184  0.79756101     0.29100
F1561       F  0.51069542  0.23210918  0.82782140    -0.20300
H1562       H  0.44959479  0.22859819  0.80170907     0.17400
H1563       H  0.54808684  0.24053499  0.73077555     0.17400
F1564       F  0.48697674  0.24072966  0.70483460    -0.20300
C1565       C  0.28043647  0.70015542  0.90596693    -0.21800
C1566       C  0.24450239  0.70681002  0.90900306    -0.09800
C1567       C  0.23461276  0.73581383  0.92626191     0.29100
C1568       C  0.26005051  0.75883873  0.93825259    -0.21800
C1569       C  0.29597470  0.75334467  0.93374478    -0.09800
C1570       C  0.30591656  0.72314884  0.91803553     0.29100
F1571       F  0.34011190  0.71719126  0.91225119    -0.20300
H1572       H  0.28885948  0.67784840  0.89311010     0.17400
H1573       H  0.25156091  0.78175876  0.95026115     0.17400
F1574       F  0.20032734  0.74206705  0.93148750    -0.20300
C1575       C  0.53337440  0.79085730  0.98402840    -0.21800
C1576       C  0.53865717  0.79074855  0.51529015    -0.09800
C1577       C  0.50943950  0.78423505  0.53368904     0.29100
C1578       C  0.47535864  0.78446370  0.52119478    -0.21800
C1579       C  0.46991193  0.78802712  0.99034936    -0.09800
C1580       C  0.49941546  0.78774061  0.97158331     0.29100
F1581       F  0.49536594  0.78807586  0.94113084    -0.20300
H1582       H  0.55525383  0.79513489  0.96913936     0.17400
H1583       H  0.45316695  0.78403563  0.53611489     0.17400
F1584       F  0.51350147  0.78130968  0.56409233    -0.20300
C1585       C  0.33812617  0.98250352  0.95037228    -0.21800
C1586       C  0.36989988  0.96543829  0.94482920    -0.09800
C1587       C  0.40047015  0.98622696  0.94240352     0.29100
C1588       C  0.39952881  0.02247088  0.94760841    -0.21800
C1589       C  0.36811939  0.03920344  0.95501241    -0.09800
C1590       C  0.33710920  0.01882057  0.95521742     0.29100
F1591       F  0.30577384  0.03368090  0.96081148    -0.20300
H1592       H  0.31399925  0.96753831  0.95198262     0.17400
H1593       H  0.42372299  0.03737364  0.94633807     0.17400
F1594       F  0.43157012  0.97154116  0.93568053    -0.20300
C1595       C  0.54540915  0.85673339  0.90026729    -0.21800
C1596       C  0.55162575  0.83250595  0.87716104    -0.09800
C1597       C  0.52326068  0.81292358  0.86537653     0.29100
C1598       C  0.48940423  0.81845249  0.87589280    -0.21800
C1599       C  0.48322524  0.84357043  0.89829884    -0.09800
C1600       C  0.51173891  0.86269713  0.91033021     0.29100
F1601       F  0.50724755  0.88740750  0.93178886    -0.20300
H1602       H  0.56649947  0.87264562  0.90965272     0.17400
H1603       H  0.46809944  0.80259833  0.86684080     0.17400
F1604       F  0.52796163  0.78925743  0.84312720    -0.20300
C1605       C  0.30530822  0.73318975  0.67012224    -0.21800
C1606       C  0.29449080  0.76804872  0.67398341    -0.09800
C1607       C  0.25942839  0.77651069  0.66727240     0.29100
C1608       C  0.23617771  0.75117347  0.65656514    -0.21800
C1609       C  0.24672146  0.71646675  0.65225006    -0.09800
C1610       C  0.28152929  0.70741914  0.65959190     0.29100
F1611       F  0.29267777  0.67406117  0.65625170    -0.20300
H1612       H  0.33207866  0.72588971  0.67532846     0.17400
H1613       H  0.20949905  0.75904949  0.65165215     0.17400
F1614       F  0.24738493  0.80960097  0.67037927    -0.20300
C1615       C  0.50664342  0.87696024  0.78453509    -0.21800
C1616       C  0.53826974  0.86899787  0.77040233    -0.09800
C1617       C  0.53799569  0.86205807  0.73922611     0.29100
C1618       C  0.50646825  0.86199240  0.72281847    -0.21800
C1619       C  0.47474777  0.86781668  0.73734202    -0.09800
C1620       C  0.47499699  0.87601468  0.76820127     0.29100
F1621       F  0.44470960  0.88303589  0.78247676    -0.20300
H1622       H  0.50623098  0.88255758  0.80848926     0.17400
H1623       H  0.50667487  0.85599719  0.69897652     0.17400
F1624       F  0.56805584  0.85486001  0.72466510    -0.20300
C1625       C  0.33304735  0.99662198  0.70217161    -0.21800
C1626       C  0.36357292  0.97666233  0.70464417    -0.09800
C1627       C  0.39579349  0.99382487  0.71100116     0.29100
C1628       C  0.39733553  0.03005886  0.71401961    -0.21800
C1629       C  0.36698249  0.05009224  0.71112196    -0.09800
C1630       C  0.33460287  0.03299493  0.70538930     0.29100
F1631       F  0.30447860  0.05135354  0.70225617    -0.20300
H1632       H  0.30803984  0.98419306  0.69704689     0.17400
H1633       H  0.42245950  0.04243615  0.71880956     0.17400
F1634       F  0.42613213  0.97578778  0.71404755    -0.20300
C1635       C  0.33203456  0.87774330  0.80191594    -0.21800
C1636       C  0.33158849  0.84650286  0.78526168    -0.09800
C1637       C  0.32931359  0.81432337  0.80075036     0.29100
C1638       C  0.33018813  0.81333326  0.83220289    -0.21800
C1639       C  0.33347296  0.84429378  0.84898061    -0.09800
C1640       C  0.33307087  0.87672138  0.83364867     0.29100
F1641       F  0.33646332  0.90716094  0.84910629    -0.20300
H1642       H  0.33386487  0.90282158  0.79041307     0.17400
H1643       H  0.32981195  0.78804377  0.84347920     0.17400
F1644       F  0.32756804  0.78362101  0.78549844    -0.20300
C1645       C  0.31802531  0.85323222  0.58513002    -0.21800
C1646       C  0.32996789  0.88458735  0.59854161    -0.09800
C1647       C  0.34278023  0.91160496  0.57987703     0.29100
C1648       C  0.34621350  0.90636434  0.54895685    -0.21800
C1649       C  0.33684493  0.87423472  0.53584434    -0.09800
C1650       C  0.32145367  0.84801099  0.55388078     0.29100
F1651       F  0.31287968  0.81638424  0.54190917    -0.20300
H1652       H  0.30873447  0.83178159  0.59912865     0.17400
H1653       H  0.35786354  0.92699761  0.53536162     0.17400
F1654       F  0.35417185  0.94238881  0.59184394    -0.20300
C1655       C  0.48724582  0.81082686  0.64899699    -0.21800
C1656       C  0.45639743  0.82041092  0.63354155    -0.09800
C1657       C  0.45879356  0.83636283  0.60479635     0.29100
C1658       C  0.49124897  0.84583187  0.59337515    -0.21800
C1659       C  0.52215951  0.83828310  0.60962331    -0.09800
C1660       C  0.51991180  0.81959733  0.63720334     0.29100
F1661       F  0.54912342  0.81060216  0.65326906    -0.20300
H1662       H  0.48614842  0.79895973  0.67129081     0.17400
H1663       H  0.49210998  0.85869901  0.57147949     0.17400
F1664       F  0.42955709  0.84506342  0.58859614    -0.20300
loop_ 
_geom_bond_atom_site_label_1 
_geom_bond_atom_site_label_2 
_geom_bond_distance 
_geom_bond_site_symmetry_2 
_ccdc_geom_bond_type 
O1           C16   1.269       .  A
O1           Al9   1.924       .  S
C2           O12   1.262       .  A
C2            O3   1.262       .  A
C2          C814   1.478       .  S
O3           Al5   1.919       .  S
O4            C6   1.269       .  A
O4           Al5   1.923       .  S
Al5          O13   1.961       .  S
Al5          O15   1.901       .  S
Al5          O14   1.763       .  S
C6           O19   1.265       .  A
C6          C774   1.482       .  S
O7           C17   1.271       .  A
O7           Al9   1.961       .  S
O8           C21   1.265       .  A
O8          Al18   1.930       .  S
Al9          O22   1.901       .  S
Al9          O19   1.907       .  S
Al9          O14   1.773       .  S
O10          C17   1.251       .  A
O10         Al18   1.860       .  S
O11          C20   1.255       .  A
O11         Al18   1.855       .  S
O12         Al18   1.913       .  S
O13          C20   1.274       .  A
O14         Al18   1.755       .  S
O15          C16   1.265       .  A
C16         C804   1.475       .  S
C17         C824   1.471       .  S
C20         C794   1.479       .  S
C21          O22   1.263       .  A
C21         C787   1.466       .  S
O23          C38   1.259       .  A
O23         Al31   1.890       .  S
C24          O34   1.267       .  A
C24          O25   1.267       .  A
C24        C1649   1.475       .  S
O25         Al27   1.913       .  S
O26          C28   1.262       .  A
O26         Al27   1.906       .  S
Al27         O35   1.914       .  S
Al27         O37   1.909       .  S
Al27         O36   1.774       .  S
C28          O41   1.266       .  A
C28         C747   1.489       .  S
O29          C39   1.268       .  A
O29         Al31   1.919       .  S
O30          C43   1.268       .  A
O30         Al40   1.917       .  S
Al31         O44   1.907       .  S
Al31         O41   1.943       .  S
Al31         O36   1.788       .  S
O32          C39   1.265       .  A
O32         Al40   1.927       .  S
O33          C42   1.265       .  A
O33         Al40   1.942       .  S
O34         Al40   1.918       .  S
O35          C42   1.262       .  A
O36         Al40   1.784       .  S
O37          C38   1.264       .  A
C38         C767   1.478       .  S
C39         C737   1.493       .  S
C42         C754   1.501       .  S
C43          O44   1.265       .  A
C43         C807   1.476       .  S
O45          C60   1.267       .  A
O45         Al53   1.935       .  S
C46          O56   1.266       .  A
C46          O47   1.263       .  A
C46         C704   1.469       .  S
O47         Al49   1.887       .  S
O48          C50   1.264       .  A
O48         Al49   1.910       .  S
Al49         O57   1.894       .  S
Al49         O59   1.893       .  S
Al49         O58   1.777       .  S
C50          O63   1.264       .  A
C50         C684   1.479       .  S
O51          C61   1.261       .  A
O51         Al53   1.915       .  S
O52          C65   1.267       .  A
O52         Al62   1.927       .  S
Al53         O66   1.894       .  S
Al53         O63   1.910       .  S
Al53         O58   1.781       .  S
O54          C61   1.260       .  A
O54         Al62   1.901       .  S
O55          C64   1.262       .  A
O55         Al62   1.903       .  S
O56         Al62   1.916       .  S
O57          C64   1.256       .  A
O58         Al62   1.770       .  S
O59          C60   1.260       .  A
C60         C714   1.477       .  S
C61         C724   1.474       .  S
C64         C797   1.477       .  S
C65          O66   1.264       .  A
C65         C694   1.473       .  S
O67          C82   1.264       .  A
O67         Al75   1.920       .  S
C68          O78   1.268       .  A
C68         O901   1.261       .  A
C68         C717   1.474       .  S
O69         C900   1.261       .  A
O69         Al71   1.889       .  S
O70          C72   1.270       .  A
O70         Al71   1.942       .  S
Al71         O79   1.945       .  S
Al71         O81   1.890       .  S
Al71         O80   1.776       .  S
C72          O85   1.267       .  A
C72         C654   1.501       .  S
O73          C83   1.263       .  A
O73         Al75   1.923       .  S
O74          C87   1.267       .  A
O74         Al84   1.932       .  S
Al75         O88   1.906       .  S
Al75         O85   1.920       .  S
Al75         O80   1.780       .  S
O76          C83   1.260       .  A
O76         Al84   1.900       .  S
O77          C86   1.261       .  A
O77         Al84   1.909       .  S
O78        Al916   1.937   1_554  S
O79          C86   1.267       .  A
O80         Al84   1.773       .  S
O81          C82   1.260       .  A
C82         C707   1.457       .  S
C83         C674   1.474       .  S
Al84        O910   1.937       .  S
C86         C757   1.502       .  S
C87          O88   1.265       .  A
C87         C664   1.482       .  S
O89         C104   1.257       .  A
O89         Al97   1.873       .  S
C90         O100   1.268       .  A
C90          O91   1.268       .  A
C90        C1466   1.484   1_554  S
O91         Al93   1.916       .  S
O92          C94   1.262       .  A
O92         Al93   1.912       .  S
Al93        O101   1.919       .  S
Al93        O103   1.924       .  S
Al93        O102   1.775       .  S
C94         O107   1.264       .  A
C94         C744   1.490       .  S
O95         C105   1.265       .  A
O95         Al97   1.909       .  S
O96         C109   1.270       .  A
O96        Al106   1.936       .  S
Al97        O110   1.922       .  S
Al97        O107   1.938       .  S
Al97        O102   1.784       .  S
O98         C105   1.263       .  A
O98        Al106   1.904       .  S
O99         C108   1.260       .  A
O99        Al106   1.911       .  S
O100       Al106   1.922       .  S
O101        C108   1.264       .  A
O102       Al106   1.781       .  S
O103        C104   1.268       .  A
C104        C827   1.475       .  S
C105        C614   1.481       .  S
C108        C624   1.493       .  S
C109        O110   1.266       .  A
C109        C647   1.498       .  S
O111        C126   1.273       .  A
O111       Al119   1.939       .  S
C112        O122   1.263       .  A
C112        O113   1.266       .  A
C112        C637   1.488       .  S
O113       Al115   1.930       .  S
O114        C116   1.272       .  A
O114       Al115   1.940       .  S
Al115       O123   1.969       .  S
Al115       O125   1.917       .  S
Al115       O124   1.769       .  S
C116        O129   1.264       .  A
C116        C594   1.491       .  S
O117        C127   1.272       .  A
O117       Al119   1.966       .  S
O118        C131   1.264       .  A
O118       Al128   1.925       .  S
Al119       O132   1.896       .  S
Al119       O129   1.904       .  S
Al119       O124   1.769       .  S
O120        C127   1.253       .  A
O120       Al128   1.863       .  S
O121        C130   1.253       .  A
O121       Al128   1.850       .  S
O122       Al128   1.915       .  S
O123        C130   1.274       .  A
O124       Al128   1.752       .  S
O125        C126   1.267       .  A
C126        C644   1.495       .  S
C127        C764   1.480       .  S
C130        C604   1.475       .  S
C131        O132   1.262       .  A
C131        C784   1.472       .  S
O133        C148   1.265       .  A
O133       Al141   1.933       .  S
C134        O976   1.268       .  A
C134        O967   1.257       .  A
C134        C574   1.468       .  S
O135        C966   1.258   1_554  A
O135       Al137   1.868       .  S
O136        C138   1.273       .  A
O136       Al137   1.940       .  S
Al137       O145   1.932       .  S
Al137       O147   1.898       .  S
Al137       O146   1.774       .  S
C138        O151   1.266       .  A
C138        C564   1.495       .  S
O139        C149   1.259       .  A
O139       Al141   1.921       .  S
O140        C153   1.272       .  A
O140       Al150   1.933       .  S
Al141       O154   1.898       .  S
Al141       O151   1.914       .  S
Al141       O146   1.785       .  S
O142        C149   1.256       .  A
O142       Al150   1.896       .  S
O143        C152   1.257       .  A
O143       Al150   1.894       .  S
O144        C966   1.268   1_554  A
O144       Al150   1.933       .  S
O145        C152   1.264       .  A
O146       Al150   1.766       .  S
O147        C148   1.261       .  A
C148        C587   1.474       .  S
C149        C677   1.471       .  S
C152        C627   1.493       .  S
C153        O154   1.267       .  A
C153        C697   1.478       .  S
O155        C170   1.266       .  A
O155       Al163   1.923       .  S
C156        O166   1.270       .  A
C156        O157   1.267       .  A
C156        C584   1.475       .  S
O157       Al159   1.905       .  S
O158        C160   1.259       .  A
O158       Al159   1.891       .  S
Al159       O167   1.881       .  S
Al159       O169   1.902       .  S
Al159       O168   1.775       .  S
C160        O173   1.267       .  A
C160        C554   1.479       .  S
O161        C171   1.258       .  A
O161       Al163   1.911       .  S
O162        C175   1.270       .  A
O162       Al172   1.934       .  S
Al163       O176   1.900       .  S
Al163       O173   1.927       .  S
Al163       O168   1.783       .  S
O164        C171   1.258       .  A
O164       Al172   1.896       .  S
O165        C174   1.261       .  A
O165       Al172   1.907       .  S
O166       Al172   1.928       .  S
O167        C174   1.252       .  A
O168       Al172   1.765       .  S
O169        C170   1.264       .  A
C170        C577   1.462       .  S
C171        C727   1.471       .  S
C174        C607   1.472       .  S
C175        O176   1.265       .  A
C175        C667   1.484       .  S
O177        C192   1.275       .  A
O177       Al185   1.946       .  S
C178        O188   1.267       .  A
C178        O179   1.266       .  A
C178        C537   1.485       .  S
O179       Al181   1.919       .  S
O180        C182   1.265       .  A
O180       Al181   1.913       .  S
Al181       O189   1.937       .  S
Al181       O191   1.910       .  S
Al181       O190   1.773       .  S
C182        O195   1.262       .  A
C182        C617   1.479       .  S
O183        C193   1.269       .  A
O183       Al185   1.951       .  S
O184        C197   1.263       .  A
O184       Al194   1.919       .  S
Al185       O198   1.884       .  S
Al185       O195   1.904       .  S
Al185       O190   1.772       .  S
O186        C193   1.253       .  A
O186       Al194   1.861       .  S
O187        C196   1.254       .  A
O187       Al194   1.858       .  S
O188       Al194   1.925       .  S
O189        C196   1.266       .  A
O190       Al194   1.755       .  S
O191        C192   1.268       .  A
C192        C524   1.496       .  S
C193        C547   1.473       .  S
C196        C514   1.464       .  S
C197        O198   1.260       .  A
C197        C504   1.462       .  S
O199        C214   1.259       .  A
O199       Al207   1.876       .  S
C200        O210   1.267       .  A
C200        O201   1.266       .  A
C200        C534   1.480       .  S
O201       Al203   1.915       .  S
O202        C204   1.260       .  A
O202       Al203   1.909       .  S
Al203       O211   1.917       .  S
Al203       O213   1.919       .  S
Al203       O212   1.781       .  S
C204        O217   1.264       .  A
C204        C474   1.490       .  S
O205        C215   1.269       .  A
O205       Al207   1.921       .  S
O206        C219   1.272       .  A
O206       Al216   1.945       .  S
Al207       O220   1.911       .  S
Al207       O217   1.939       .  S
Al207       O212   1.787       .  S
O208        C215   1.265       .  A
O208       Al216   1.913       .  S
O209        C218   1.264       .  A
O209       Al216   1.930       .  S
O210       Al216   1.921       .  S
O211        C218   1.262       .  A
O212       Al216   1.779       .  S
O213        C214   1.266       .  A
C214        C494   1.472       .  S
C215        C597   1.491       .  S
C218        C484   1.502       .  S
C219        O220   1.264       .  A
C219        C527   1.498       .  S
O221        C236   1.273       .  A
O221       Al229   1.940       .  S
C222        O232   1.269       .  A
C222        O223   1.267       .  A
C222        C447   1.473       .  S
O223       Al225   1.910       .  S
O224        C226   1.266       .  A
O224       Al225   1.909       .  S
Al225       O233   1.913       .  S
Al225       O235   1.901       .  S
Al225       O234   1.763       .  S
C226        O239   1.270       .  A
C226        C777   1.487       .  S
O227        C237   1.266       .  A
O227       Al229   1.960       .  S
O228        C241   1.275       .  A
O228       Al238   1.975       .  S
Al229       O242   1.875       .  S
Al229       O239   1.931       .  S
Al229       O234   1.778       .  S
O230        C237   1.245       .  A
O230       Al238   1.860       .  S
O231        C240   1.258       .  A
O231       Al238   1.873       .  S
O232       Al238   1.934       .  S
O233        C240   1.261       .  A
O234       Al238   1.751       .  S
O235        C236   1.267       .  A
C236        C434   1.473       .  S
C237        C454   1.474       .  S
C240        C517   1.462       .  S
C241        O242   1.261       .  A
C241        C464   1.488       .  S
O243        C258   1.268       .  A
O243       Al251   1.935       .  S
C244        O254   1.266       .  A
C244        O245   1.257       .  A
C244        C437   1.472       .  S
O245       Al247   1.876       .  S
O246        C248   1.269       .  A
O246       Al247   1.940       .  S
Al247       O255   1.940       .  S
Al247       O257   1.896       .  S
Al247       O256   1.776       .  S
C248        O261   1.261       .  A
C248        C734   1.493       .  S
O249        C259   1.260       .  A
O249       Al251   1.918       .  S
O250        C263   1.270       .  A
O250       Al260   1.931       .  S
Al251       O264   1.906       .  S
Al251       O261   1.903       .  S
Al251       O256   1.790       .  S
O252        C259   1.259       .  A
O252       Al260   1.896       .  S
O253        C262   1.264       .  A
O253       Al260   1.916       .  S
O254       Al260   1.941       .  S
O255        C262   1.268       .  A
O256       Al260   1.776       .  S
O257        C258   1.262       .  A
C258        C444   1.485       .  S
C259        C414   1.466       .  S
C262        C487   1.503       .  S
C263        O264   1.266       .  A
C263        C427   1.493       .  S
O265        C280   1.272       .  A
O265       Al273   1.939       .  S
C266        O276   1.267       .  A
C266        O267   1.264       .  A
C266        C394   1.492       .  S
O267       Al269   1.921       .  S
O268        C270   1.266       .  A
O268       Al269   1.913       .  S
Al269       O277   1.938       .  S
Al269       O279   1.896       .  S
Al269       O278   1.770       .  S
C270        O283   1.259       .  A
C270        C557   1.469       .  S
O271        C281   1.268       .  A
O271       Al273   1.945       .  S
O272        C285   1.264       .  A
O272       Al282   1.924       .  S
Al273       O286   1.883       .  S
Al273       O283   1.890       .  S
Al273       O278   1.776       .  S
O274        C281   1.254       .  A
O274       Al282   1.860       .  S
O275        C284   1.255       .  A
O275       Al282   1.859       .  S
O276       Al282   1.929       .  S
O277        C284   1.268       .  A
O278       Al282   1.756       .  S
O279        C280   1.263       .  A
C280        C407   1.482       .  S
C281        C497   1.464       .  S
C284        C384   1.471       .  S
C285        O286   1.260       .  A
C285        C507   1.463       .  S
O287        C302   1.259       .  A
O287       Al295   1.886       .  S
C288        O298   1.270       .  A
C288        O289   1.266       .  A
C288        C397   1.487       .  S
O289       Al291   1.913       .  S
O290        C292   1.261       .  A
O290       Al291   1.906       .  S
Al291       O299   1.915       .  S
Al291      O1133   1.909       .  S
Al291      O1132   1.777       .  S
C292       O1137   1.265       .  A
C292        C477   1.489       .  S
O293        C303   1.269       .  A
O293       Al295   1.924   1_556  S
O294        C307   1.270       .  A
O294       Al304   1.931   1_554  S
Al295       O308   1.909       .  S
Al295       O305   1.941   1_554  S
Al295       O300   1.791   1_554  S
O296        C303   1.263       .  A
O296       Al304   1.909       .  S
O297        C306   1.262       .  A
O297       Al304   1.926       .  S
O298      Al1136   1.931       .  S
O299       C1138   1.262       .  A
O300       Al304   1.782       .  S
O300      Al1123   1.778       .  S
O301        C302   1.265   1_556  A
O301      Al1123   1.912       .  S
C302        C544   1.478       .  S
C303        C567   1.495   1_556  S
Al304      O1130   1.930       .  S
O305       C1124   1.265       .  A
C306       O1131   1.262       .  A
C306        C374   1.497       .  S
C307        O308   1.264       .  A
C307        C404   1.485       .  S
O309        C324   1.257       .  A
O309       Al317   1.890       .  S
C310        O320   1.263       .  A
C310        O311   1.265       .  A
C310        C357   1.485       .  S
O311       Al313   1.920       .  S
O312        C314   1.269       .  A
O312       Al313   1.933       .  S
Al313      O1153   1.929       .  S
Al313      O1155   1.934       .  S
Al313       O322   1.779       .  S
C314       O1159   1.270       .  A
C314        C657   1.500       .  S
O315        C325   1.256       .  A
O315      Al1149   1.901       .  S
O316        C329   1.266       .  A
O316      Al1158   1.921   1_554  S
Al317       O330   1.923       .  S
Al317       O327   1.926   1_554  S
Al317      O1147   1.904   1_554  S
Al317      O1154   1.786   1_554  S
O318        C325   1.259       .  A
O318       Al326   1.907       .  S
O319       C1160   1.260       .  A
O319       Al326   1.905       .  S
O320       Al326   1.909       .  S
O321        C328   1.265       .  A
O321      Al1145   1.930       .  S
O322       Al326   1.780       .  S
O322      Al1149   1.787       .  S
O323        C324   1.267       .  A
O323      Al1145   1.938   1_554  S
C324        C364   1.487       .  S
C325        C417   1.470       .  S
Al326      O1148   1.922       .  S
O327       C1146   1.270       .  A
C328       O1151   1.260       .  A
C328        C377   1.497       .  S
C329        O330   1.268       .  A
C329        C467   1.482       .  S
O331        C346   1.251       .  A
O331       Al339   1.875       .  S
C332        O342   1.269       .  A
C332        O333   1.267       .  A
C332        C354   1.490       .  S
O333       Al335   1.929       .  S
O334        C336   1.255       .  A
O334       Al335   1.856       .  S
Al335       O343   1.883       .  S
Al335       O345   1.937       .  S
Al335       O344   1.759       .  S
C336        O349   1.279       .  A
C336        C424   1.488       .  S
O337        C347   1.261       .  A
O337       Al339   1.896       .  S
O338        C351   1.264       .  A
O338       Al348   1.892       .  S
Al339       O352   1.949       .  S
Al339       O349   1.998       .  S
Al339       O344   1.769       .  S
O340        C347   1.263       .  A
O340       Al348   1.907       .  S
O341        C350   1.269       .  A
O341       Al348   1.928       .  S
O342       Al348   1.927       .  S
O343        C350   1.263       .  A
O344       Al348   1.768       .  S
O345        C346   1.265       .  A
C346        C457   1.473       .  S
C347        C687   1.476       .  S
C350        C387   1.472       .  S
C351        O352   1.276       .  A
C351        C367   1.483       .  S
C353        C354   1.407       .  A
C353        C358   1.396       .  A
C353        H360   1.083       .  S
C354        C355   1.411       .  A
C355        C356   1.407       .  A
C355        F362   1.357       .  S
C356        C357   1.406       .  A
C356        H361   1.083       .  S
C357        C358   1.407       .  A
C358        F359   1.358       .  S
C363        C364   1.404       .  A
C363        C368   1.405       .  A
C363        H370   1.083       .  S
C364        C365   1.414       .  A
C365        C366   1.395       .  A
C365        F372   1.358       .  S
C366        C367   1.399       .  A
C366        H371   1.084       .  S
C367        C368   1.413       .  A
C368        F369   1.358       .  S
C373        C374   1.408   1_554  A
C373        C378   1.405   1_655  A
C373        H380   1.083       .  S
C374       C1207   1.412       .  A
C375        C376   1.402   1_655  A
C375       C1206   1.412       .  A
C375        F382   1.357       .  S
C376       C1209   1.407       .  A
C376        H381   1.083       .  S
C377        C378   1.413   1_556  A
C377       C1208   1.407       .  A
C378        F379   1.357       .  S
C383        C384   1.406       .  A
C383        C388   1.389   1_655  A
C383        H390   1.083       .  S
C384        C385   1.404       .  A
C385        C386   1.395   1_655  A
C385        F392   1.357       .  S
C386        C387   1.407       .  A
C386        H391   1.083       .  S
C387        C388   1.406       .  A
C388        F389   1.358       .  S
C393        C394   1.405       .  A
C393        C398   1.396       .  A
C393        H400   1.083       .  S
C394        C395   1.413       .  A
C395        C396   1.409       .  A
C395        F402   1.356       .  S
C396        C397   1.406       .  A
C396        H401   1.083       .  S
C397        C398   1.408       .  A
C398        F399   1.358       .  S
C403        C404   1.404       .  A
C403        C408   1.405       .  A
C403        H410   1.083       .  S
C404        C405   1.412       .  A
C405        C406   1.396       .  A
C405        F412   1.358       .  S
C406        C407   1.400       .  A
C406        H411   1.083       .  S
C407        C408   1.412       .  A
C408        F409   1.358       .  S
C413        C414   1.407       .  A
C413        C418   1.398       .  A
C413        H420   1.081       .  S
C414        C415   1.400       .  A
C415        C416   1.396       .  A
C415        F422   1.358       .  S
C416        C417   1.406       .  A
C416        H421   1.082       .  S
C417        C418   1.402       .  A
C418        F419   1.357       .  S
C423        C424   1.408       .  A
C423        C428   1.393       .  A
C423        H430   1.084       .  S
C424        C425   1.407       .  A
C425        C426   1.409       .  A
C425        F432   1.357       .  S
C426        C427   1.412       .  A
C426        H431   1.083       .  S
C427        C428   1.409       .  A
C428        F429   1.358       .  S
C433        C434   1.408       .  A
C433       C1270   1.402       .  A
C433        H440   1.084       .  S
C434        C435   1.402       .  A
C435       C1268   1.395   1_554  A
C435        F442   1.357       .  S
C436        C437   1.404       .  A
C436       C1267   1.395       .  A
C436        H441   1.084       .  S
C437        C438   1.404       .  A
C438       C1265   1.403       .  A
C438        F439   1.358       .  S
C443        C444   1.407       .  A
C443        C448   1.400       .  A
C443        H450   1.084       .  S
C444        C445   1.410       .  A
C445        C446   1.400       .  A
C445        F452   1.357       .  S
C446        C447   1.402       .  A
C446        H451   1.084       .  S
C447        C448   1.405       .  A
C448        F449   1.358       .  S
C453        C454   1.405       .  A
C453        C458   1.400       .  A
C453        H460   1.083       .  S
C454        C455   1.409       .  A
C455        C456   1.391       .  A
C455        F462   1.359       .  S
C456        C457   1.401       .  A
C456        H461   1.082       .  S
C457        C458   1.409       .  A
C458        F459   1.358       .  S
C463        C464   1.406       .  A
C463        C468   1.394       .  A
C463        H470   1.083       .  S
C464        C465   1.409       .  A
C465        C466   1.408       .  A
C465        F472   1.355       .  S
C466        C467   1.407       .  A
C466        H471   1.083       .  S
C467        C468   1.405       .  A
C468        F469   1.357       .  S
C473        C474   1.410       .  A
C473        C478   1.406       .  A
C473        H480   1.081       .  S
C474        C475   1.404       .  A
C475        C476   1.406       .  A
C475        F482   1.357       .  S
C476        C477   1.410       .  A
C476        H481   1.081       .  S
C477        C478   1.403       .  A
C478        F479   1.357       .  S
C483        C484   1.410       .  A
C483        C488   1.410   1_655  A
C483        H490   1.083       .  S
C484        C485   1.412       .  A
C485        C486   1.403   1_655  A
C485        F492   1.357       .  S
C486        C487   1.407       .  A
C486        H491   1.083       .  S
C487        C488   1.413       .  A
C488        F489   1.357       .  S
C493        C494   1.406       .  A
C493        C498   1.395       .  A
C493        H500   1.084       .  S
C494        C495   1.407       .  A
C495        C496   1.390       .  A
C495        F502   1.358       .  S
C496        C497   1.403       .  A
C496        H501   1.084       .  S
C497        C498   1.405       .  A
C498        F499   1.358       .  S
C503        C504   1.403       .  A
C503        C508   1.399       .  A
C503        H510   1.083       .  S
C504        C505   1.403       .  A
C505        C506   1.391       .  A
C505        F512   1.358       .  S
C506        C507   1.401       .  A
C506        H511   1.084       .  S
C507        C508   1.404       .  A
C508        F509   1.357       .  S
C513        C514   1.404       .  A
C513        C518   1.396   1_655  A
C513        H520   1.083       .  S
C514        C515   1.407       .  A
C515        C516   1.386   1_655  A
C515        F522   1.359       .  S
C516        C517   1.400       .  A
C516        H521   1.084       .  S
C517        C518   1.405       .  A
C518        F519   1.357       .  S
C523        C524   1.413       .  A
C523        C528   1.410       .  A
C523        H530   1.083       .  S
C524        C525   1.407       .  A
C525        C526   1.396       .  A
C525        F532   1.358       .  S
C526        C527   1.411       .  A
C526        H531   1.083       .  S
C527        C528   1.408       .  A
C528        F529   1.357       .  S
C533        C534   1.405       .  A
C533       C1370   1.407       .  A
C533        H540   1.084       .  S
C534        C535   1.405       .  A
C535       C1368   1.395       .  A
C535        F542   1.358       .  S
C536        C537   1.405       .  A
C536       C1367   1.395   1_554  A
C536        H541   1.084       .  S
C537        C538   1.411       .  A
C538       C1365   1.407   1_554  A
C538        F539   1.358       .  S
C543        C544   1.404       .  A
C543        C548   1.390       .  A
C543        H550   1.083       .  S
C544        C545   1.411       .  A
C545        C546   1.399       .  A
C545        F552   1.358       .  S
C546        C547   1.404       .  A
C546        H551   1.083       .  S
C547        C548   1.408       .  A
C548        F549   1.358       .  S
C553        C554   1.406       .  A
C553        C558   1.404       .  A
C553        H560   1.083       .  S
C554        C555   1.412       .  A
C555        C556   1.386       .  A
C555        F562   1.358       .  S
C556        C557   1.397       .  A
C556        H561   1.084       .  S
C557        C558   1.408       .  A
C558        F559   1.357       .  S
C563        C564   1.404       .  A
C563        C568   1.397       .  A
C563        H570   1.083       .  S
C564        C565   1.413       .  A
C565        C566   1.409       .  A
C565        F572   1.357       .  S
C566        C567   1.408       .  A
C566        H571   1.083       .  S
C567        C568   1.413       .  A
C568       F1401   1.358       .  S
F569       C1400   1.358       .  S
C573        C574   1.405       .  A
C573        C578   1.392       .  A
C573        H580   1.084       .  S
C574        C575   1.404       .  A
C575        C576   1.399       .  A
C575        F582   1.357       .  S
C576        C577   1.404       .  A
C576        H581   1.084       .  S
C577        C578   1.401       .  A
C578        F579   1.358       .  S
C583        C584   1.404       .  A
C583        C588   1.396       .  A
C583        H590   1.083       .  S
C584        C585   1.406       .  A
C585        C586   1.402       .  A
C585        F592   1.357       .  S
C586        C587   1.404       .  A
C586        H591   1.083       .  S
C587        C588   1.406       .  A
C588        F589   1.358       .  S
C593        C594   1.410       .  A
C593        C598   1.407       .  A
C593        H600   1.082       .  S
C594        C595   1.407       .  A
C595        C596   1.397       .  A
C595        F602   1.358       .  S
C596        C597   1.408       .  A
C596        H601   1.083       .  S
C597        C598   1.409       .  A
C598        F599   1.357       .  S
C603        C604   1.401   1_545  A
C603        C608   1.398       .  A
C603        H610   1.083   1_545  S
C604        C605   1.414       .  A
C605        C606   1.391   1_565  A
C605        F612   1.358       .  S
C606        C607   1.397       .  A
C606        H611   1.083       .  S
C607        C608   1.412       .  A
C608        F609   1.358       .  S
C613        C614   1.407       .  A
C613        C618   1.403       .  A
C613        H620   1.083       .  S
C614        C615   1.410       .  A
C615        C616   1.391       .  A
C615        F622   1.358       .  S
C616        C617   1.402       .  A
C616        H621   1.084       .  S
C617        C618   1.408       .  A
C618        F619   1.357       .  S
C623        C624   1.405       .  A
C623        C628   1.403   1_565  A
C623        H630   1.083       .  S
C624        C625   1.414       .  A
C625        C626   1.401   1_565  A
C625        F632   1.358       .  S
C626        C627   1.405       .  A
C626        H631   1.083       .  S
C627        C628   1.413       .  A
C628        F629   1.357       .  S
C633        C634   1.408       .  A
C633        C638   1.410       .  A
C633        H640   1.083       .  S
C634        C922   1.485       .  S
C634        C635   1.407       .  A
C635        C636   1.391       .  A
C635        F642   1.358       .  S
C636        C637   1.405       .  A
C636        H641   1.083       .  S
C637        C638   1.411       .  A
C638        F639   1.357       .  S
C643        C644   1.403       .  A
C643        C648   1.398       .  A
C643        H650   1.083       .  S
C644        C645   1.414       .  A
C645        C646   1.410       .  A
C645        F652   1.357       .  S
C646        C647   1.408       .  A
C646        H651   1.083       .  S
C647        C648   1.413       .  A
C648        F649   1.357       .  S
C653        C654   1.408       .  A
C653        C658   1.402       .  A
C653        H660   1.083       .  S
C654        C655   1.412       .  A
C655        C656   1.409       .  A
C655        F662   1.357       .  S
C656        C657   1.409       .  A
C656        H661   1.082       .  S
C657        C658   1.412       .  A
C658        F659   1.358       .  S
C663        C664   1.406       .  A
C663        C668   1.401       .  A
C663        H670   1.085       .  S
C664        C665   1.406       .  A
C665        C666   1.400       .  A
C665        F672   1.357       .  S
C666        C667   1.406       .  A
C666        H671   1.086       .  S
C667        C668   1.409       .  A
C668        F669   1.358       .  S
C673        C674   1.407       .  A
C673        C678   1.398       .  A
C673        H680   1.083       .  S
C674       C1507   1.404       .  A
C675        C676   1.399       .  A
C675       C1506   1.403       .  A
C675        F682   1.358       .  S
C676        C677   1.406       .  A
C676        H681   1.083       .  S
C677       C1510   1.403   1_554  A
C678       C1509   1.403       .  A
C678        F679   1.358       .  S
C683        C684   1.404       .  A
C683        C688   1.402       .  A
C683        H690   1.083       .  S
C684        C685   1.409       .  A
C685        C686   1.393       .  A
C685        F692   1.358       .  S
C686        C687   1.402       .  A
C686        H691   1.084       .  S
C687        C688   1.410       .  A
C688        F689   1.357       .  S
C693        C694   1.406       .  A
C693        C698   1.400       .  A
C693        H700   1.084       .  S
C694        C695   1.403       .  A
C695        C696   1.395       .  A
C695        F702   1.358       .  S
C696        C697   1.406       .  A
C696        H701   1.084       .  S
C697        C698   1.408       .  A
C698        F699   1.358       .  S
C703        C704   1.404       .  A
C703        C708   1.395       .  A
C703        H710   1.083       .  S
C704        C705   1.408       .  A
C705        C706   1.394       .  A
C705        F712   1.358       .  S
C706        C707   1.400       .  A
C706        H711   1.084       .  S
C707        C708   1.401       .  A
C708        F709   1.357       .  S
C713        C714   1.403       .  A
C713        C718   1.399       .  A
C713        H720   1.083       .  S
C714        C715   1.410       .  A
C715        C716   1.400       .  A
C715        F722   1.358       .  S
C716        C717   1.401       .  A
C716        H721   1.083       .  S
C717        C718   1.407       .  A
C718        F719   1.358       .  S
C723        C724   1.402       .  A
C723        C728   1.399       .  A
C723        H730   1.083       .  S
C724        C725   1.410       .  A
C725        C726   1.397       .  A
C725        F732   1.357       .  S
C726        C727   1.400       .  A
C726        H731   1.083       .  S
C727        C728   1.409       .  A
C728        F729   1.358       .  S
C733        C734   1.407       .  A
C733        C738   1.406       .  A
C733        H740   1.083       .  S
C734        C735   1.409       .  A
C735        C736   1.404       .  A
C735        F742   1.358       .  S
C736        C737   1.408       .  A
C736        H741   1.083       .  S
C737        C738   1.410       .  A
C738        F739   1.357       .  S
C743        C748   1.404       .  A
C743       C1576   1.402       .  A
C743        H750   1.083       .  S
C744        C745   1.412       .  A
C744       C1575   1.402   1_554  A
C745        C746   1.406       .  A
C745        F752   1.355       .  S
C746       C1579   1.403   1_554  A
C746        H751   1.083       .  S
C747        C748   1.412       .  A
C747       C1578   1.402       .  A
C748        F749   1.354       .  S
C753        C754   1.410       .  A
C753        C758   1.407   1_565  A
C753        H760   1.083       .  S
C754        C755   1.411       .  A
C755        C756   1.406   1_565  A
C755        F762   1.357       .  S
C756        C757   1.410       .  A
C756        H761   1.083       .  S
C757        C758   1.411       .  A
C758        F759   1.357       .  S
C763        C764   1.409       .  A
C763        C768   1.390       .  A
C763        H770   1.083       .  S
C764        C765   1.406       .  A
C765        C766   1.401       .  A
C765        F772   1.357       .  S
C766        C767   1.409       .  A
C766        H771   1.083       .  S
C767        C768   1.405       .  A
C768        F769   1.358       .  S
C773        C774   1.409       .  A
C773        C778   1.409       .  A
C773        H780   1.083       .  S
C774        C775   1.404       .  A
C775        C776   1.388       .  A
C775        F782   1.358       .  S
C776        C777   1.407       .  A
C776        H781   1.083       .  S
C777        C778   1.410       .  A
C778        F779   1.357       .  S
C783        C784   1.407       .  A
C783        C788   1.397       .  A
C783        H790   1.083       .  S
C784        C785   1.406       .  A
C785        C786   1.395       .  A
C785        F792   1.358       .  S
C786        C787   1.402       .  A
C786        H791   1.081       .  S
C787        C788   1.403       .  A
C788        F789   1.358       .  S
C793        C794   1.402       .  A
C793        C798   1.398   1_565  A
C793        H800   1.084       .  S
C794        C795   1.413       .  A
C795        C796   1.392   1_565  A
C795        F802   1.358       .  S
C796        C797   1.399       .  A
C796        H801   1.084       .  S
C797        C798   1.412       .  A
C798        F799   1.358       .  S
C803        C804   1.407       .  A
C803        C808   1.403       .  A
C803        H810   1.083       .  S
C804        C805   1.404       .  A
C805        C806   1.391       .  A
C805        F812   1.358       .  S
C806        C807   1.405       .  A
C806        H811   1.083       .  S
C807        C808   1.406       .  A
C808        F809   1.357       .  S
C813        C814   1.408       .  A
C813        C818   1.406       .  A
C813        H820   1.084       .  S
C814        C815   1.405       .  A
C815        C816   1.393       .  A
C815        F822   1.358       .  S
C816        C817   1.402       .  A
C816        H821   1.084       .  S
C817        C856   1.474       .  S
C817        C818   1.406       .  A
C818        F819   1.358       .  S
C823        C824   1.402       .  A
C823        C828   1.397       .  A
C823        H830   1.083       .  S
C824        C825   1.409       .  A
C825        C826   1.390       .  A
C825        F832   1.359       .  S
C826        C827   1.403       .  A
C826        H831   1.083       .  S
C827        C828   1.412       .  A
C828        F829   1.358       .  S
O833        C848   1.269       .  A
O833       Al841   1.924       .  S
C834        O844   1.262       .  A
C834        O835   1.263       .  A
C834       C1646   1.479       .  S
O835       Al837   1.922       .  S
O836        C838   1.268       .  A
O836       Al837   1.920       .  S
Al837       O845   1.961       .  S
Al837       O847   1.904       .  S
Al837       O846   1.763       .  S
C838        O851   1.266       .  A
C838       C1606   1.485       .  S
O839        C849   1.271       .  A
O839       Al841   1.963       .  S
O840        C853   1.265       .  A
O840       Al850   1.931       .  S
Al841       O854   1.901       .  S
Al841       O851   1.911       .  S
Al841       O846   1.772       .  S
O842        C849   1.251       .  A
O842       Al850   1.860       .  S
O843        C852   1.255       .  A
O843       Al850   1.853       .  S
O844       Al850   1.913       .  S
O845        C852   1.274       .  A
O846       Al850   1.755       .  S
O847        C848   1.266       .  A
C848       C1636   1.476       .  S
C849       C1656   1.471       .  S
C852       C1626   1.478       .  S
C853        O854   1.262       .  A
C853       C1619   1.467       .  S
O855        C870   1.259       .  A
O855       Al863   1.889       .  S
C856        O866   1.267   1_554  A
C856        O857   1.267   1_554  A
O857       Al859   1.914       .  S
O858        C860   1.262       .  A
O858       Al859   1.908       .  S
Al859       O867   1.915       .  S
Al859       O869   1.908       .  S
Al859       O868   1.775       .  S
C860        O873   1.266       .  A
C860       C1579   1.490       .  S
O861        C871   1.267       .  A
O861       Al863   1.918       .  S
O862        C875   1.267       .  A
O862       Al872   1.915       .  S
Al863       O876   1.911       .  S
Al863       O873   1.943       .  S
Al863       O868   1.787       .  S
O864        C871   1.265       .  A
O864       Al872   1.926       .  S
O865        C874   1.265       .  A
O865       Al872   1.939       .  S
O866       Al872   1.916       .  S
O867        C874   1.262       .  A
O868       Al872   1.784       .  S
O869        C870   1.263       .  A
C870       C1599   1.478       .  S
C871       C1569   1.493       .  S
C874       C1586   1.500       .  S
C875        O876   1.266       .  A
C875       C1639   1.477       .  S
O877        C892   1.267       .  A
O877       Al885   1.935       .  S
C878        O888   1.266       .  A
C878        O879   1.262       .  A
C878       C1536   1.468       .  S
O879       Al881   1.884       .  S
O880        C882   1.264       .  A
O880       Al881   1.910       .  S
Al881       O889   1.893       .  S
Al881       O891   1.892       .  S
Al881       O890   1.776       .  S
C882        O895   1.263       .  A
C882       C1516   1.479       .  S
O883        C893   1.261       .  A
O883       Al885   1.916       .  S
O884        C897   1.267       .  A
O884       Al894   1.927       .  S
Al885       O898   1.894       .  S
Al885       O895   1.910       .  S
Al885       O890   1.780       .  S
O886        C893   1.260       .  A
O886       Al894   1.901       .  S
O887        C896   1.262       .  A
O887       Al894   1.903       .  S
O888       Al894   1.917       .  S
O889        C896   1.256       .  A
O890       Al894   1.770       .  S
O891        C892   1.260       .  A
C892       C1546   1.476       .  S
C893       C1556   1.475       .  S
C896       C1629   1.476       .  S
C897        O898   1.264       .  A
C897       C1526   1.473       .  S
O899        C914   1.264       .  A
O899       Al907   1.916       .  S
C900        O910   1.268       .  A
C900       C1549   1.474       .  S
O901       Al903   1.889   1_554  S
O902        C904   1.270       .  A
O902       Al903   1.941       .  S
Al903       O911   1.944       .  S
Al903       O913   1.890       .  S
Al903       O912   1.775       .  S
C904        O917   1.267       .  A
C904       C1486   1.501       .  S
O905        C915   1.263       .  A
O905       Al907   1.922       .  S
O906        C919   1.267       .  A
O906       Al916   1.931       .  S
Al907       O920   1.908       .  S
Al907       O917   1.921       .  S
Al907       O912   1.779       .  S
O908        C915   1.260   1_554  A
O908       Al916   1.898   1_554  S
O909        C918   1.261       .  A
O909       Al916   1.908       .  S
O911        C918   1.267       .  A
O912       Al916   1.772       .  S
O913        C914   1.260       .  A
C914       C1539   1.455       .  S
C915       C1506   1.473   1_556  S
C918       C1589   1.501       .  S
C919        O920   1.265       .  A
C919       C1496   1.482       .  S
O921        C936   1.257       .  A
O921       Al929   1.873       .  S
C922        O932   1.268       .  A
C922        O923   1.267       .  A
O923       Al925   1.914       .  S
O924        C926   1.261       .  A
O924       Al925   1.911       .  S
Al925       O933   1.919       .  S
Al925       O935   1.925       .  S
Al925       O934   1.775       .  S
C926        O939   1.264       .  A
C926       C1576   1.490       .  S
O927        C937   1.265       .  A
O927       Al929   1.909       .  S
O928        C941   1.270       .  A
O928       Al938   1.938       .  S
Al929       O942   1.924       .  S
Al929       O939   1.939       .  S
Al929       O934   1.784       .  S
O930        C937   1.263       .  A
O930       Al938   1.901       .  S
O931        C940   1.259       .  A
O931       Al938   1.909       .  S
O932       Al938   1.924       .  S
O933        C940   1.264       .  A
O934       Al938   1.780       .  S
O935        C936   1.268       .  A
C936       C1659   1.475       .  S
C937       C1446   1.481       .  S
C940       C1456   1.493       .  S
C941        O942   1.266       .  A
C941       C1479   1.499       .  S
O943        C958   1.272       .  A
O943       Al951   1.941       .  S
C944        O954   1.263       .  A
C944        O945   1.265       .  A
C944       C1469   1.487       .  S
O945       Al947   1.929       .  S
O946        C948   1.273       .  A
O946       Al947   1.945       .  S
Al947       O955   1.971       .  S
Al947       O957   1.918       .  S
Al947       O956   1.767       .  S
C948        O961   1.264       .  A
C948       C1426   1.491       .  S
O949        C959   1.272       .  A
O949       Al951   1.968       .  S
O950        C963   1.265       .  A
O950       Al960   1.929       .  S
Al951       O964   1.894       .  S
Al951       O961   1.901       .  S
Al951       O956   1.770       .  S
O952        C959   1.252       .  A
O952       Al960   1.862       .  S
O953        C962   1.253       .  A
O953       Al960   1.847       .  S
O954       Al960   1.915       .  S
O955        C962   1.275       .  A
O956       Al960   1.752       .  S
O957        C958   1.267       .  A
C958       C1476   1.496       .  S
C959       C1596   1.479       .  S
C962       C1436   1.476       .  S
C963        O964   1.262       .  A
C963       C1616   1.473       .  S
O965        C980   1.265       .  A
O965       Al973   1.934       .  S
C966       C1406   1.470       .  S
O967       Al969   1.866       .  S
O968        C970   1.273       .  A
O968       Al969   1.940       .  S
Al969       O977   1.933       .  S
Al969       O979   1.896       .  S
Al969       O978   1.774       .  S
C970        O983   1.267       .  A
C970       C1396   1.495       .  S
O971        C981   1.259       .  A
O971       Al973   1.925       .  S
O972        C985   1.273       .  A
O972       Al982   1.934       .  S
Al973       O986   1.898       .  S
Al973       O983   1.914       .  S
Al973       O978   1.784       .  S
O974        C981   1.256       .  A
O974       Al982   1.895       .  S
O975        C984   1.257       .  A
O975       Al982   1.891       .  S
O976       Al982   1.934       .  S
O977        C984   1.265       .  A
O978       Al982   1.765       .  S
O979        C980   1.261       .  A
C980       C1419   1.473       .  S
C981       C1509   1.473       .  S
C984       C1459   1.493       .  S
C985        O986   1.267       .  A
C985       C1529   1.478       .  S
O987       C1002   1.266       .  A
O987       Al995   1.924       .  S
C988        O998   1.271       .  A
C988        O989   1.267       .  A
C988       C1416   1.474       .  S
O989       Al991   1.903       .  S
O990        C992   1.259       .  A
O990       Al991   1.893       .  S
Al991       O999   1.881       .  S
Al991      O1001   1.901       .  S
Al991      O1000   1.775       .  S
C992       O1005   1.267       .  A
C992       C1386   1.480       .  S
O993       C1003   1.259       .  A
O993       Al995   1.912       .  S
O994       C1007   1.270       .  A
O994      Al1004   1.934       .  S
Al995      O1008   1.899       .  S
Al995      O1005   1.928       .  S
Al995      O1000   1.782       .  S
O996       C1003   1.258       .  A
O996      Al1004   1.896       .  S
O997       C1006   1.261       .  A
O997      Al1004   1.908       .  S
O998      Al1004   1.928       .  S
O999       C1006   1.252       .  A
O1000     Al1004   1.764       .  S
O1001      C1002   1.264       .  A
C1002      C1409   1.462       .  S
C1003      C1559   1.472       .  S
C1006      C1439   1.472       .  S
C1007      O1008   1.265       .  A
C1007      C1499   1.485       .  S
O1009      C1024   1.275       .  A
O1009     Al1017   1.947       .  S
C1010      O1020   1.266       .  A
C1010      O1011   1.266       .  A
C1010      C1369   1.486       .  S
O1011     Al1013   1.922       .  S
O1012      C1014   1.265       .  A
O1012     Al1013   1.911       .  S
Al1013     O1021   1.937       .  S
Al1013     O1023   1.909       .  S
Al1013     O1022   1.772       .  S
C1014      O1027   1.261       .  A
C1014      C1449   1.478       .  S
O1015      C1025   1.269       .  A
O1015     Al1017   1.950       .  S
O1016      C1029   1.263       .  A
O1016     Al1026   1.918       .  S
Al1017     O1030   1.885       .  S
Al1017     O1027   1.904       .  S
Al1017     O1022   1.772       .  S
O1018      C1025   1.253       .  A
O1018     Al1026   1.860       .  S
O1019      C1028   1.254       .  A
O1019     Al1026   1.859       .  S
O1020     Al1026   1.924       .  S
O1021      C1028   1.267       .  A
O1022     Al1026   1.754       .  S
O1023      C1024   1.268       .  A
C1024      C1356   1.496       .  S
C1025      C1379   1.471       .  S
C1028      C1346   1.465       .  S
C1029      O1030   1.260       .  A
C1029      C1336   1.460       .  S
O1031      C1046   1.259       .  A
O1031     Al1039   1.875       .  S
C1032      O1042   1.267       .  A
C1032      O1033   1.266       .  A
C1032      C1366   1.480       .  S
O1033     Al1035   1.914       .  S
O1034      C1036   1.260       .  A
O1034     Al1035   1.910       .  S
Al1035     O1043   1.917       .  S
Al1035     O1045   1.921       .  S
Al1035     O1044   1.782       .  S
C1036      O1049   1.264       .  A
C1036      C1306   1.492       .  S
O1037      C1047   1.270       .  A
O1037     Al1039   1.922       .  S
O1038      C1051   1.272       .  A
O1038     Al1048   1.945       .  S
Al1039     O1052   1.910       .  S
Al1039     O1049   1.941       .  S
Al1039     O1044   1.788       .  S
O1040      C1047   1.266       .  A
O1040     Al1048   1.914       .  S
O1041      C1050   1.264       .  A
O1041     Al1048   1.931       .  S
O1042     Al1048   1.921       .  S
O1043      C1050   1.262       .  A
O1044     Al1048   1.780       .  S
O1045      C1046   1.267       .  A
C1046      C1326   1.472       .  S
C1047      C1429   1.492       .  S
C1050      C1316   1.503       .  S
C1051      O1052   1.264       .  A
C1051      C1359   1.498       .  S
O1053      C1068   1.273       .  A
O1053     Al1061   1.939       .  S
C1054      O1064   1.269       .  A
C1054      O1055   1.266       .  A
C1054      C1279   1.473       .  S
O1055     Al1057   1.910       .  S
O1056      C1058   1.266       .  A
O1056     Al1057   1.911       .  S
Al1057     O1065   1.913       .  S
Al1057     O1067   1.904       .  S
Al1057     O1066   1.762       .  S
C1058      O1071   1.269       .  A
C1058      C1609   1.484       .  S
O1059      C1069   1.266       .  A
O1059     Al1061   1.956       .  S
O1060      C1073   1.276       .  A
O1060     Al1070   1.979       .  S
Al1061     O1074   1.873       .  S
Al1061     O1071   1.927       .  S
Al1061     O1066   1.778       .  S
O1062      C1069   1.245       .  A
O1062     Al1070   1.859       .  S
O1063      C1072   1.259       .  A
O1063     Al1070   1.874       .  S
O1064     Al1070   1.936       .  S
O1065      C1072   1.261       .  A
O1066     Al1070   1.751       .  S
O1067      C1068   1.267       .  A
C1068      C1266   1.476       .  S
C1069      C1286   1.471       .  S
C1072      C1349   1.463       .  S
C1073      O1074   1.261       .  A
C1073      C1296   1.489       .  S
O1075      C1090   1.269       .  A
O1075     Al1083   1.938       .  S
C1076      O1086   1.266       .  A
C1076      O1077   1.257       .  A
C1076      C1269   1.472       .  S
O1077     Al1079   1.875       .  S
O1078      C1080   1.269       .  A
O1078     Al1079   1.940       .  S
Al1079     O1087   1.942       .  S
Al1079     O1089   1.896       .  S
Al1079     O1088   1.776       .  S
C1080      O1093   1.261       .  A
C1080      C1566   1.493       .  S
O1081      C1091   1.261       .  A
O1081     Al1083   1.925       .  S
O1082      C1095   1.270       .  A
O1082     Al1092   1.932       .  S
Al1083     O1096   1.902       .  S
Al1083     O1093   1.903       .  S
Al1083     O1088   1.789       .  S
O1084      C1091   1.259       .  A
O1084     Al1092   1.894       .  S
O1085      C1094   1.264       .  A
O1085     Al1092   1.917       .  S
O1086     Al1092   1.940       .  S
O1087      C1094   1.268       .  A
O1088     Al1092   1.775       .  S
O1089      C1090   1.262       .  A
C1090      C1276   1.487       .  S
C1091      C1246   1.468       .  S
C1094      C1319   1.504       .  S
C1095      O1096   1.265       .  A
C1095      C1259   1.492       .  S
O1097      C1112   1.272       .  A
O1097     Al1105   1.937       .  S
C1098      O1108   1.267       .  A
C1098      O1099   1.263       .  A
C1098      C1226   1.490       .  S
O1099     Al1101   1.916       .  S
O1100      C1102   1.267       .  A
O1100     Al1101   1.916       .  S
Al1101     O1109   1.939       .  S
Al1101     O1111   1.893       .  S
Al1101     O1110   1.770       .  S
C1102      O1115   1.259       .  A
C1102      C1389   1.471       .  S
O1103      C1113   1.268       .  A
O1103     Al1105   1.944       .  S
O1104      C1117   1.265       .  A
O1104     Al1114   1.928       .  S
Al1105     O1118   1.882       .  S
Al1105     O1115   1.889       .  S
Al1105     O1110   1.776       .  S
O1106      C1113   1.254       .  A
O1106     Al1114   1.862       .  S
O1107      C1116   1.256       .  A
O1107     Al1114   1.862       .  S
O1108     Al1114   1.930       .  S
O1109      C1116   1.268       .  A
O1110     Al1114   1.757       .  S
O1111      C1112   1.262       .  A
C1112      C1239   1.480       .  S
C1113      C1329   1.464       .  S
C1116      C1216   1.473       .  S
C1117      O1118   1.260       .  A
C1117      C1339   1.466       .  S
O1119      C1134   1.258       .  A
O1119     Al1127   1.885       .  S
C1120      O1130   1.269       .  A
C1120      O1121   1.266       .  A
C1120      C1229   1.486       .  S
O1121     Al1123   1.914       .  S
O1122      C1124   1.261       .  A
O1122     Al1123   1.908       .  S
Al1123     O1131   1.914       .  S
C1124      C1309   1.490       .  S
O1125      C1135   1.269       .  A
O1125     Al1127   1.925       .  S
O1126      C1139   1.271       .  A
O1126     Al1136   1.931       .  S
Al1127     O1140   1.904       .  S
Al1127     O1137   1.939       .  S
Al1127     O1132   1.791       .  S
O1128      C1135   1.263       .  A
O1128     Al1136   1.908       .  S
O1129      C1138   1.262       .  A
O1129     Al1136   1.926       .  S
O1132     Al1136   1.782       .  S
O1133      C1134   1.264       .  A
C1134      C1376   1.477       .  S
C1135      C1399   1.496       .  S
C1138      C1206   1.498       .  S
C1139      O1140   1.263       .  A
C1139      C1236   1.485       .  S
O1141      C1156   1.256       .  A
O1141     Al1149   1.890       .  S
C1142      O1152   1.263       .  A
C1142      O1143   1.265       .  A
C1142      C1189   1.486       .  S
O1143     Al1145   1.922       .  S
O1144      C1146   1.269       .  A
O1144     Al1145   1.933       .  S
Al1145     O1154   1.780       .  S
C1146      C1489   1.500       .  S
O1147      C1157   1.257       .  A
O1148      C1161   1.267       .  A
Al1149     O1162   1.923       .  S
Al1149     O1159   1.926       .  S
O1150      C1157   1.259       .  A
O1150     Al1158   1.907       .  S
O1151     Al1158   1.903       .  S
O1152     Al1158   1.908       .  S
O1153      C1160   1.265       .  A
O1154     Al1158   1.780       .  S
O1155      C1156   1.267       .  A
C1156      C1196   1.484       .  S
C1157      C1249   1.471       .  S
C1160      C1209   1.498       .  S
C1161      O1162   1.268       .  A
C1161      C1299   1.482       .  S
O1163      C1178   1.250       .  A
O1163     Al1171   1.872       .  S
C1164      O1174   1.269       .  A
C1164      O1165   1.267       .  A
C1164      C1186   1.491       .  S
O1165     Al1167   1.928       .  S
O1166      C1168   1.255       .  A
O1166     Al1167   1.855       .  S
Al1167     O1175   1.884       .  S
Al1167     O1177   1.936       .  S
Al1167     O1176   1.759       .  S
C1168      O1181   1.279       .  A
C1168      C1256   1.487       .  S
O1169      C1179   1.261       .  A
O1169     Al1171   1.895       .  S
O1170      C1183   1.264       .  A
O1170     Al1180   1.891       .  S
Al1171     O1184   1.947       .  S
Al1171     O1181   1.997       .  S
Al1171     O1176   1.770       .  S
O1172      C1179   1.263       .  A
O1172     Al1180   1.908       .  S
O1173      C1182   1.270       .  A
O1173     Al1180   1.931       .  S
O1174     Al1180   1.929       .  S
O1175      C1182   1.263       .  A
O1176     Al1180   1.765       .  S
O1177      C1178   1.265       .  A
C1178      C1289   1.471       .  S
C1179      C1519   1.476       .  S
C1182      C1219   1.473       .  S
C1183      O1184   1.275       .  A
C1183      C1199   1.481       .  S
C1185      C1186   1.407       .  A
C1185      C1190   1.396       .  A
C1185      H1192   1.083       .  S
C1186      C1187   1.411       .  A
C1187      C1188   1.407       .  A
C1187      F1194   1.357       .  S
C1188      C1189   1.406       .  A
C1188      H1193   1.083       .  S
C1189      C1190   1.407       .  A
C1190      F1191   1.358       .  S
C1195      C1196   1.403       .  A
C1195      C1200   1.404       .  A
C1195      H1202   1.084       .  S
C1196      C1197   1.414       .  A
C1197      C1198   1.395       .  A
C1197      F1204   1.358       .  S
C1198      C1199   1.399       .  A
C1198      H1203   1.084       .  S
C1199      C1200   1.412       .  A
C1200      F1201   1.357       .  S
C1205      C1206   1.408       .  A
C1205      C1210   1.406   1_655  A
C1205      H1212   1.083       .  S
C1207      C1208   1.402   1_655  A
C1207      F1214   1.357       .  S
C1208      H1213   1.082       .  S
C1209      C1210   1.413       .  A
C1210      F1211   1.357       .  S
C1215      C1216   1.406       .  A
C1215      C1220   1.390   1_655  A
C1215      H1222   1.083       .  S
C1216      C1217   1.404       .  A
C1217      C1218   1.396   1_655  A
C1217      F1224   1.357       .  S
C1218      C1219   1.407       .  A
C1218      H1223   1.082       .  S
C1219      C1220   1.406       .  A
C1220      F1221   1.358       .  S
C1225      C1226   1.404       .  A
C1225      C1230   1.396       .  A
C1225      H1232   1.083       .  S
C1226      C1227   1.413       .  A
C1227      C1228   1.408       .  A
C1227      F1234   1.357       .  S
C1228      C1229   1.405       .  A
C1228      H1233   1.083       .  S
C1229      C1230   1.408       .  A
C1230      F1231   1.358       .  S
C1235      C1236   1.404       .  A
C1235      C1240   1.404       .  A
C1235      H1242   1.083       .  S
C1236      C1237   1.413       .  A
C1237      C1238   1.394       .  A
C1237      F1244   1.358       .  S
C1238      C1239   1.399       .  A
C1238      H1243   1.083       .  S
C1239      C1240   1.412       .  A
C1240      F1241   1.358       .  S
C1245      C1246   1.407       .  A
C1245      C1250   1.399       .  A
C1245      H1252   1.081       .  S
C1246      C1247   1.401       .  A
C1247      C1248   1.396       .  A
C1247      F1254   1.358       .  S
C1248      C1249   1.406       .  A
C1248      H1253   1.082       .  S
C1249      C1250   1.402       .  A
C1250      F1251   1.357       .  S
C1255      C1256   1.408       .  A
C1255      C1260   1.392       .  A
C1255      H1262   1.085       .  S
C1256      C1257   1.407       .  A
C1257      C1258   1.409       .  A
C1257      F1264   1.357       .  S
C1258      C1259   1.413       .  A
C1258      H1263   1.083       .  S
C1259      C1260   1.408       .  A
C1260      F1261   1.358       .  S
C1265      C1266   1.409       .  A
C1265      H1272   1.084       .  S
C1266      C1267   1.403       .  A
C1267      F1274   1.357       .  S
C1268      C1269   1.405       .  A
C1268      H1273   1.084       .  S
C1269      C1270   1.403   1_556  A
C1270      F1271   1.358   1_554  S
C1275      C1276   1.407       .  A
C1275      C1280   1.400       .  A
C1275      H1282   1.084       .  S
C1276      C1277   1.412       .  A
C1277      C1278   1.401       .  A
C1277      F1284   1.357       .  S
C1278      C1279   1.401       .  A
C1278      H1283   1.084       .  S
C1279      C1280   1.404       .  A
C1280      F1281   1.358       .  S
C1285      C1286   1.404       .  A
C1285      C1290   1.398       .  A
C1285      H1292   1.083       .  S
C1286      C1287   1.409       .  A
C1287      C1288   1.390       .  A
C1287      F1294   1.359       .  S
C1288      C1289   1.400       .  A
C1288      H1293   1.083       .  S
C1289      C1290   1.409       .  A
C1290      F1291   1.358       .  S
C1295      C1296   1.407       .  A
C1295      C1300   1.394       .  A
C1295      H1302   1.083       .  S
C1296      C1297   1.410       .  A
C1297      C1298   1.409       .  A
C1297      F1304   1.356       .  S
C1298      C1299   1.407       .  A
C1298      H1303   1.082       .  S
C1299      C1300   1.405       .  A
C1300      F1301   1.357       .  S
C1305      C1306   1.411       .  A
C1305      C1310   1.407       .  A
C1305      H1312   1.081       .  S
C1306      C1307   1.404       .  A
C1307      C1308   1.406       .  A
C1307      F1314   1.357       .  S
C1308      C1309   1.410       .  A
C1308      H1313   1.080       .  S
C1309      C1310   1.404       .  A
C1310      F1311   1.357       .  S
C1315      C1316   1.410       .  A
C1315      C1320   1.410   1_655  A
C1315      H1322   1.083       .  S
C1316      C1317   1.412       .  A
C1317      C1318   1.404   1_655  A
C1317      F1324   1.357       .  S
C1318      C1319   1.408       .  A
C1318      H1323   1.083       .  S
C1319      C1320   1.414       .  A
C1320      F1321   1.357       .  S
C1325      C1326   1.406       .  A
C1325      C1330   1.394       .  A
C1325      H1332   1.084       .  S
C1326      C1327   1.407       .  A
C1327      C1328   1.390       .  A
C1327      F1334   1.358       .  S
C1328      C1329   1.403       .  A
C1328      H1333   1.084       .  S
C1329      C1330   1.405       .  A
C1330      F1331   1.358       .  S
C1335      C1336   1.402       .  A
C1335      C1340   1.399       .  A
C1335      H1342   1.083       .  S
C1336      C1337   1.402       .  A
C1337      C1338   1.391       .  A
C1337      F1344   1.358       .  S
C1338      C1339   1.403       .  A
C1338      H1343   1.084       .  S
C1339      C1340   1.405       .  A
C1340      F1341   1.357       .  S
C1345      C1346   1.403       .  A
C1345      C1350   1.395   1_655  A
C1345      H1352   1.083       .  S
C1346      C1347   1.407       .  A
C1347      C1348   1.387   1_655  A
C1347      F1354   1.359       .  S
C1348      C1349   1.401       .  A
C1348      H1353   1.084       .  S
C1349      C1350   1.405       .  A
C1350      F1351   1.357       .  S
C1355      C1356   1.413       .  A
C1355      C1360   1.410       .  A
C1355      H1362   1.084       .  S
C1356      C1357   1.406       .  A
C1357      C1358   1.397       .  A
C1357      F1364   1.358       .  S
C1358      C1359   1.411       .  A
C1358      H1363   1.083       .  S
C1359      C1360   1.408       .  A
C1360      F1361   1.357       .  S
C1365      C1366   1.405       .  A
C1365      H1372   1.084       .  S
C1366      C1367   1.405       .  A
C1367      F1374   1.358       .  S
C1368      C1369   1.405       .  A
C1368      H1373   1.084       .  S
C1369      C1370   1.411       .  A
C1370      F1371   1.358       .  S
C1375      C1376   1.404       .  A
C1375      C1380   1.390       .  A
C1375      H1382   1.083       .  S
C1376      C1377   1.410       .  A
C1377      C1378   1.398       .  A
C1377      F1384   1.358       .  S
C1378      C1379   1.404       .  A
C1378      H1383   1.083       .  S
C1379      C1380   1.408       .  A
C1380      F1381   1.359       .  S
C1385      C1386   1.405       .  A
C1385      C1390   1.404       .  A
C1385      H1392   1.083       .  S
C1386      C1387   1.413       .  A
C1387      C1388   1.386       .  A
C1387      F1394   1.358       .  S
C1388      C1389   1.397       .  A
C1388      H1393   1.084       .  S
C1389      C1390   1.408       .  A
C1390      F1391   1.357       .  S
C1395      C1396   1.404       .  A
C1395      C1400   1.397       .  A
C1395      H1402   1.083       .  S
C1396      C1397   1.413       .  A
C1397      C1398   1.409       .  A
C1397      F1404   1.357       .  S
C1398      C1399   1.408       .  A
C1398      H1403   1.083       .  S
C1399      C1400   1.414       .  A
C1405      C1406   1.406       .  A
C1405      C1410   1.392       .  A
C1405      H1412   1.084       .  S
C1406      C1407   1.405       .  A
C1407      C1408   1.399       .  A
C1407      F1414   1.357       .  S
C1408      C1409   1.404       .  A
C1408      H1413   1.084       .  S
C1409      C1410   1.400       .  A
C1410      F1411   1.358       .  S
C1415      C1416   1.403       .  A
C1415      C1420   1.396       .  A
C1415      H1422   1.083       .  S
C1416      C1417   1.406       .  A
C1417      C1418   1.401       .  A
C1417      F1424   1.357       .  S
C1418      C1419   1.404       .  A
C1418      H1423   1.083       .  S
C1419      C1420   1.406       .  A
C1420      F1421   1.358       .  S
C1425      C1426   1.410       .  A
C1425      C1430   1.407       .  A
C1425      H1432   1.083       .  S
C1426      C1427   1.406       .  A
C1427      C1428   1.398       .  A
C1427      F1434   1.357       .  S
C1428      C1429   1.409       .  A
C1428      H1433   1.083       .  S
C1429      C1430   1.409       .  A
C1430      F1431   1.357       .  S
C1435      C1436   1.400   1_545  A
C1435      C1440   1.398       .  A
C1435      H1442   1.083   1_545  S
C1436      C1437   1.415       .  A
C1437      C1438   1.391   1_565  A
C1437      F1444   1.358       .  S
C1438      C1439   1.397       .  A
C1438      H1443   1.084       .  S
C1439      C1440   1.413       .  A
C1440      F1441   1.358       .  S
C1445      C1446   1.407       .  A
C1445      C1450   1.403       .  A
C1445      H1452   1.083       .  S
C1446      C1447   1.410       .  A
C1447      C1448   1.390       .  A
C1447      F1454   1.358       .  S
C1448      C1449   1.402       .  A
C1448      H1453   1.084       .  S
C1449      C1450   1.408       .  A
C1450      F1451   1.357       .  S
C1455      C1456   1.405       .  A
C1455      C1460   1.403   1_565  A
C1455      H1462   1.083       .  S
C1456      C1457   1.414       .  A
C1457      C1458   1.401   1_565  A
C1457      F1464   1.358       .  S
C1458      C1459   1.405       .  A
C1458      H1463   1.083       .  S
C1459      C1460   1.413       .  A
C1460      F1461   1.357       .  S
C1465      C1466   1.407       .  A
C1465      C1470   1.409       .  A
C1465      H1472   1.083       .  S
C1466      C1467   1.406       .  A
C1467      C1468   1.392       .  A
C1467      F1474   1.358       .  S
C1468      C1469   1.405       .  A
C1468      H1473   1.083       .  S
C1469      C1470   1.411       .  A
C1470      F1471   1.357       .  S
C1475      C1476   1.403       .  A
C1475      C1480   1.399       .  A
C1475      H1482   1.083       .  S
C1476      C1477   1.414       .  A
C1477      C1478   1.411       .  A
C1477      F1484   1.357       .  S
C1478      C1479   1.408       .  A
C1478      H1483   1.083       .  S
C1479      C1480   1.413       .  A
C1480      F1481   1.357       .  S
C1485      C1486   1.408       .  A
C1485      C1490   1.401       .  A
C1485      H1492   1.083       .  S
C1486      C1487   1.412       .  A
C1487      C1488   1.409       .  A
C1487      F1494   1.357       .  S
C1488      C1489   1.409       .  A
C1488      H1493   1.083       .  S
C1489      C1490   1.412       .  A
C1490      F1491   1.358       .  S
C1495      C1496   1.406       .  A
C1495      C1500   1.400       .  A
C1495      H1502   1.085       .  S
C1496      C1497   1.406       .  A
C1497      C1498   1.400       .  A
C1497      F1504   1.357       .  S
C1498      C1499   1.407       .  A
C1498      H1503   1.086       .  S
C1499      C1500   1.409       .  A
C1500      F1501   1.358       .  S
C1505      C1506   1.407   1_556  A
C1505      C1510   1.398       .  A
C1505      H1512   1.083       .  S
C1507      C1508   1.400       .  A
C1507      F1514   1.357       .  S
C1508      C1509   1.407       .  A
C1508      H1513   1.083       .  S
C1510      F1511   1.358       .  S
C1515      C1516   1.404       .  A
C1515      C1520   1.402       .  A
C1515      H1522   1.083       .  S
C1516      C1517   1.409       .  A
C1517      C1518   1.393       .  A
C1517      F1524   1.358       .  S
C1518      C1519   1.402       .  A
C1518      H1523   1.084       .  S
C1519      C1520   1.410       .  A
C1520      F1521   1.357       .  S
C1525      C1526   1.406       .  A
C1525      C1530   1.400       .  A
C1525      H1532   1.084       .  S
C1526      C1527   1.403       .  A
C1527      C1528   1.395       .  A
C1527      F1534   1.358       .  S
C1528      C1529   1.406       .  A
C1528      H1533   1.084       .  S
C1529      C1530   1.408       .  A
C1530      F1531   1.358       .  S
C1535      C1536   1.404       .  A
C1535      C1540   1.394       .  A
C1535      H1542   1.083       .  S
C1536      C1537   1.408       .  A
C1537      C1538   1.394       .  A
C1537      F1544   1.358       .  S
C1538      C1539   1.400       .  A
C1538      H1543   1.083       .  S
C1539      C1540   1.400       .  A
C1540      F1541   1.357       .  S
C1545      C1546   1.402       .  A
C1545      C1550   1.399       .  A
C1545      H1552   1.083       .  S
C1546      C1547   1.410       .  A
C1547      C1548   1.400       .  A
C1547      F1554   1.358       .  S
C1548      C1549   1.402       .  A
C1548      H1553   1.083       .  S
C1549      C1550   1.407       .  A
C1550      F1551   1.358       .  S
C1555      C1556   1.402       .  A
C1555      C1560   1.399       .  A
C1555      H1562   1.083       .  S
C1556      C1557   1.410       .  A
C1557      C1558   1.397       .  A
C1557      F1564   1.358       .  S
C1558      C1559   1.400       .  A
C1558      H1563   1.083       .  S
C1559      C1560   1.409       .  A
C1560      F1561   1.358       .  S
C1565      C1566   1.407       .  A
C1565      C1570   1.406       .  A
C1565      H1572   1.083       .  S
C1566      C1567   1.409       .  A
C1567      C1568   1.404       .  A
C1567      F1574   1.358       .  S
C1568      C1569   1.408       .  A
C1568      H1573   1.083       .  S
C1569      C1570   1.410       .  A
C1570      F1571   1.357       .  S
C1575      C1580   1.404       .  A
C1575      H1582   1.083       .  S
C1576      C1577   1.412       .  A
C1577      C1578   1.405       .  A
C1577      F1584   1.355       .  S
C1578      H1583   1.083       .  S
C1579      C1580   1.412       .  A
C1580      F1581   1.353       .  S
C1585      C1586   1.409       .  A
C1585      C1590   1.406   1_565  A
C1585      H1592   1.083       .  S
C1586      C1587   1.411       .  A
C1587      C1588   1.406   1_565  A
C1587      F1594   1.357       .  S
C1588      C1589   1.410       .  A
C1588      H1593   1.083       .  S
C1589      C1590   1.411       .  A
C1590      F1591   1.357       .  S
C1595      C1596   1.409       .  A
C1595      C1600   1.390       .  A
C1595      H1602   1.083       .  S
C1596      C1597   1.405       .  A
C1597      C1598   1.400       .  A
C1597      F1604   1.357       .  S
C1598      C1599   1.409       .  A
C1598      H1603   1.083       .  S
C1599      C1600   1.405       .  A
C1600      F1601   1.358       .  S
C1605      C1606   1.410       .  A
C1605      C1610   1.409       .  A
C1605      H1612   1.083       .  S
C1606      C1607   1.407       .  A
C1607      C1608   1.387       .  A
C1607      F1614   1.358       .  S
C1608      C1609   1.404       .  A
C1608      H1613   1.083       .  S
C1609      C1610   1.409       .  A
C1610      F1611   1.357       .  S
C1615      C1616   1.407       .  A
C1615      C1620   1.398       .  A
C1615      H1622   1.083       .  S
C1616      C1617   1.406       .  A
C1617      C1618   1.395       .  A
C1617      F1624   1.358       .  S
C1618      C1619   1.402       .  A
C1618      H1623   1.081       .  S
C1619      C1620   1.403       .  A
C1620      F1621   1.358       .  S
C1625      C1626   1.401       .  A
C1625      C1630   1.398   1_565  A
C1625      H1632   1.084       .  S
C1626      C1627   1.414       .  A
C1627      C1628   1.392   1_565  A
C1627      F1634   1.358       .  S
C1628      C1629   1.399       .  A
C1628      H1633   1.084       .  S
C1629      C1630   1.413       .  A
C1630      F1631   1.358       .  S
C1635      C1636   1.407       .  A
C1635      C1640   1.404       .  A
C1635      H1642   1.083       .  S
C1636      C1637   1.405       .  A
C1637      C1638   1.391       .  A
C1637      F1644   1.358       .  S
C1638      C1639   1.404       .  A
C1638      H1643   1.083       .  S
C1639      C1640   1.407       .  A
C1640      F1641   1.357       .  S
C1645      C1646   1.409       .  A
C1645      C1650   1.407       .  A
C1645      H1652   1.083       .  S
C1646      C1647   1.406       .  A
C1647      C1648   1.393       .  A
C1647      F1654   1.358       .  S
C1648      C1649   1.402       .  A
C1648      H1653   1.084       .  S
C1649      C1650   1.406       .  A
C1650      F1651   1.357       .  S
C1655      C1656   1.402       .  A
C1655      C1660   1.397       .  A
C1655      H1662   1.083       .  S
C1656      C1657   1.409       .  A
C1657      C1658   1.390       .  A
C1657      F1664   1.359       .  S
C1658      C1659   1.402       .  A
C1658      H1663   1.083       .  S
C1659      C1660   1.412       .  A
C1660      F1661   1.358       .  S
