geometry optimzed in LAMMPS
_audit_creation_date              2020-11-30 
_audit_creation_method            'lammps2cif' 
_symmetry_space_group_name_H-M    'P1' 
_symmetry_Int_Tables_number       1 
_symmetry_cell_setting            triclinic 
loop_ 
_symmetry_equiv_pos_as_xyz 
  x,y,z 
_cell_length_a                    54.65899882913566 
_cell_length_b                    54.53216014074531 
_cell_length_c                    44.452040638934726 
_cell_angle_alpha                 89.6236700580478 
_cell_angle_beta                  90.05337891810213 
_cell_angle_gamma                 89.97307849413409 
loop_ 
_atom_site_label 
_atom_site_type_symbol 
_atom_site_fract_x 
_atom_site_fract_y 
_atom_site_fract_z 
_atom_site_charge 
O1          O  0.36684094  0.21117473  0.03039903    -0.82250
C2          C  0.38798700  0.26601641  0.42772062     0.97100
O3          O  0.36646871  0.25909575  0.43418897    -0.71370
O4          O  0.36700629  0.21154163  0.44316875    -0.74960
Al5        Al  0.35537279  0.23807466  0.46651552     1.48980
C6          C  0.37267638  0.19100152  0.45422941     0.92360
O7          O  0.42543406  0.21646476  0.98581671    -0.81180
O8          O  0.39336983  0.27080493  0.03197544    -0.74740
Al9        Al  0.39500759  0.21491157  0.00718721     1.90120
O10         O  0.42997455  0.25582711  0.99435420    -0.73810
O11         O  0.36973203  0.29021636  0.98532400    -0.73660
O12         O  0.40393190  0.26923535  0.44784925    -0.79320
O13         O  0.33998235  0.26374131  0.48715119    -0.77520
O14         O  0.38271482  0.24064469  0.98763014    -1.13650
O15         O  0.33931076  0.21652418  0.99472427    -0.72850
C16         C  0.34542579  0.20877727  0.02054688     0.97870
C17         C  0.43907286  0.23497373  0.48916917     0.94260
Al18       Al  0.39806019  0.26932717  0.98962101     1.55560
O19         O  0.38338930  0.18997655  0.47947125    -0.77470
C20         C  0.34735422  0.28546583  0.48907869     0.98430
C21         C  0.40104229  0.25456561  0.05015892     0.93310
O22         O  0.40769338  0.23371569  0.04053913    -0.82790
O23         O  0.36525059  0.21556719  0.28581667    -0.82250
C24         C  0.38993317  0.26211668  0.17784509     0.97100
O25         O  0.36837856  0.25594980  0.18489403    -0.71370
O26         O  0.36815598  0.20909163  0.19829961    -0.74960
Al27       Al  0.35658091  0.23727234  0.21867751     1.48980
C28         C  0.37229142  0.18916480  0.21183788     0.92360
O29         O  0.42474694  0.21327403  0.24343704    -0.81180
O30         O  0.39594138  0.27270402  0.28167499    -0.74740
Al31       Al  0.39408081  0.21546662  0.26328038     1.90120
O32         O  0.43179740  0.25298947  0.24504396    -0.73810
O33         O  0.37255310  0.28997502  0.23410307    -0.73660
O34         O  0.40606327  0.26566573  0.19766121    -0.79320
O35         O  0.34168067  0.26461589  0.23636808    -0.77520
O36         O  0.38369558  0.24026098  0.24031282    -1.13650
O37         O  0.33927838  0.21782260  0.24807649    -0.72850
C38         C  0.34430042  0.21209979  0.27499595     0.97870
C39         C  0.43950020  0.23110867  0.24315838     0.94260
Al40       Al  0.40035158  0.26820259  0.23960729     1.55560
O41         O  0.38153953  0.18934920  0.23796621    -0.77470
C42         C  0.34986494  0.28614058  0.23716423     0.98430
C43         C  0.40232340  0.25733269  0.30156034     0.93310
O44         O  0.40774349  0.23558893  0.29436394    -0.82790
O45         O  0.57195812  0.23263156  0.04674552    -0.82250
C46         C  0.60065242  0.27484927  0.44205703     0.97100
O47         O  0.58202048  0.27561161  0.45906514    -0.71370
O48         O  0.55216465  0.25911317  0.50206493    -0.74960
Al49       Al  0.58443202  0.27276498  0.50229114     1.48980
C50         C  0.54387672  0.23889323  0.49269904     0.92360
O51         O  0.60054628  0.19565064  0.48083281    -0.81180
O52         O  0.64197055  0.21696546  0.00547912    -0.74740
Al53       Al  0.58660645  0.21690909  0.01212294     1.90120
O54         O  0.61748303  0.22313083  0.45167441    -0.73810
O55         O  0.64231112  0.26593830  0.50963555    -0.73660
O56         O  0.62143610  0.26970279  0.45314278    -0.79320
O57         O  0.61347535  0.29329763  0.00318534    -0.77520
O58         O  0.60007893  0.24444454  0.49894900    -1.13650
O59         O  0.58595122  0.27063326  0.04525857    -0.72850
C60         C  0.57800370  0.25233883  0.06016779     0.97870
C61         C  0.61268665  0.20118180  0.45735907     0.94260
Al62       Al  0.62881970  0.24396605  0.48150880     1.55560
O63         O  0.55815173  0.22120925  0.98772560    -0.77470
C64         C  0.63580475  0.28810713  0.50779716     0.98430
C65         C  0.63400141  0.20514464  0.02813508     0.93310
O66         O  0.61289727  0.20944827  0.03797099    -0.82790
O67         O  0.61617217  0.20845723  0.20793718    -0.82250
C68         C  0.59951588  0.26296039  0.31364199     0.97100
O69         O  0.61907767  0.25292577  0.30498256    -0.71370
O70         O  0.61834038  0.20587494  0.29547104    -0.74960
Al71       Al  0.62883234  0.23336379  0.27225539     1.48980
C72         C  0.61198818  0.18576336  0.28416687     0.92360
O73         O  0.55817946  0.21112588  0.25549453    -0.81180
O74         O  0.58727164  0.26688072  0.20829325    -0.74740
Al75       Al  0.58828856  0.21073864  0.23309643     1.90120
O76         O  0.55325980  0.25091909  0.24997371    -0.73810
O77         O  0.61306239  0.28596235  0.25424014    -0.73660
O78         O  0.58171056  0.26582708  0.29553592    -0.79320
O79         O  0.64350443  0.26023732  0.25206929    -0.77520
O80         O  0.60067631  0.23632636  0.25284936    -1.13650
O81         O  0.64415000  0.21331250  0.24282209    -0.72850
C82         C  0.63817548  0.20739262  0.21639622     0.97870
C83         C  0.54427819  0.22967051  0.25288452     0.94260
Al84       Al  0.58497588  0.26503845  0.25210816     1.55560
O85         O  0.60106861  0.18542020  0.25916736    -0.77470
C86         C  0.63561247  0.28191544  0.25147247     0.98430
C87         C  0.57948614  0.25009104  0.19102313     0.93310
O88         O  0.57373745  0.22949463  0.20191243    -0.82790
O89         O  0.20317282  0.37865906  0.46271370    -0.82250
C90         C  0.25586785  0.40280725  0.06646348     0.97100
O91         O  0.24822864  0.38157058  0.06017125    -0.71370
O92         O  0.20107085  0.38371212  0.05053285    -0.74960
Al93       Al  0.22733667  0.37034959  0.02850476     1.48980
C94         C  0.18059555  0.38767809  0.03843741     0.92360
O95         O  0.20505618  0.43876303  0.50485412    -0.81180
O96         O  0.26119859  0.40767289  0.46185232    -0.74740
Al97       Al  0.20499636  0.40791469  0.48483422     1.90120
O98         O  0.24461727  0.44451953  0.49851411    -0.73810
O99         O  0.27957269  0.38393699  0.50906300    -0.73660
O100        O  0.25849639  0.41894306  0.04620280    -0.79320
O101        O  0.25289130  0.35411616  0.00903239    -0.77520
O102        O  0.23039779  0.39693839  0.50594048    -1.13650
O103        O  0.20586937  0.35340468  0.50132842    -0.72850
C104        C  0.20025666  0.35767176  0.47417914     0.97870
C105        C  0.22321782  0.45296261  0.50203510     0.94260
Al106      Al  0.25883133  0.41261115  0.50414529     1.55560
O107        O  0.17965983  0.39638372  0.01203649    -0.77470
C108        C  0.27465455  0.36133594  0.50691386     0.98430
C109        C  0.24518036  0.41482186  0.44320697     0.93310
O110        O  0.22401925  0.42072047  0.45214898    -0.82790
O111        O  0.20637824  0.37752525  0.21039882    -0.82250
C112        C  0.25433217  0.40271003  0.31644767     0.97100
O113        O  0.24778284  0.38112706  0.31010371    -0.71370
O114        O  0.20068857  0.38165493  0.29807280    -0.74960
Al115      Al  0.22845792  0.36936111  0.27720253     1.48980
C116        C  0.18074519  0.38623461  0.28490945     0.92360
O117        O  0.20602511  0.43784645  0.25117116    -0.81180
O118        O  0.26428490  0.40731611  0.21263049    -0.74740
Al119      Al  0.20720423  0.40682722  0.23211012     1.90120
O120        O  0.24575359  0.44429528  0.24849489    -0.73810
O121        O  0.28130088  0.38385736  0.26034017    -0.73660
O122        O  0.25812973  0.41855724  0.29622917    -0.79320
O123        O  0.25501739  0.35378194  0.25887708    -0.77520
O124        O  0.23186112  0.39622708  0.25484116    -1.13650
O125        O  0.20845872  0.35208315  0.24888732    -0.72850
C126        C  0.20278418  0.35670430  0.22189467     0.97870
C127        C  0.22405677  0.45233124  0.25053458     0.94260
Al128      Al  0.26018845  0.41229438  0.25456215     1.55560
O129        O  0.18100412  0.39525228  0.25853003    -0.77470
C130        C  0.27663184  0.36134314  0.25662681     0.98430
C131        C  0.24910256  0.41414105  0.19287272     0.93310
O132        O  0.22737813  0.41964339  0.20002441    -0.82790
O133        O  0.20614748  0.63294045  0.03705621    -0.82250
C134        C  0.25204344  0.60625176  0.42940784     0.97100
O135        O  0.24390501  0.62735323  0.43534704    -0.71370
O136        O  0.19729421  0.62514936  0.44964598    -0.74960
Al137      Al  0.22504278  0.63921337  0.46849220     1.48980
C138        C  0.17787361  0.62170842  0.46430769     0.92360
O139        O  0.20424876  0.57184301  0.99796020    -0.81180
O140        O  0.26324532  0.60331484  0.03321483    -0.74740
Al141      Al  0.20599359  0.60302683  0.01623759     1.90120
O142        O  0.24419712  0.56571907  0.49818124    -0.73810
O143        O  0.27852054  0.62635957  0.98474846    -0.73660
O144        O  0.25593962  0.59068567  0.44992705    -0.79320
O145        O  0.25163876  0.65604520  0.48482530    -0.77520
O146        O  0.22977556  0.61320246  0.49182980    -1.13650
O147        O  0.20537704  0.65679794  0.99704420    -0.72850
C148        C  0.20179873  0.65343328  0.02489403     0.97870
C149        C  0.22247381  0.55758825  0.49704442     0.94260
Al150      Al  0.25828311  0.59764164  0.49150970     1.55560
O151        O  0.17896250  0.61409875  0.49123850    -0.77470
C152        C  0.27344236  0.64892311  0.48696382     0.98430
C153        C  0.24866126  0.59665271  0.05362377     0.93310
O154        O  0.22700930  0.59048030  0.04735647    -0.82790
O155        O  0.20581379  0.63008124  0.28779023    -0.82250
C156        C  0.25435455  0.60944363  0.17992818     0.97100
O157        O  0.24621421  0.63027782  0.18733660    -0.71370
O158        O  0.19926179  0.62901852  0.19988480    -0.74960
Al159      Al  0.22710296  0.64083830  0.22095898     1.48980
C160        C  0.17952287  0.62438313  0.21334229     0.92360
O161        O  0.20551271  0.57153466  0.24246815    -0.81180
O162        O  0.26319452  0.60149208  0.28375841    -0.74740
Al163      Al  0.20643350  0.60171572  0.26403599     1.90120
O164        O  0.24528332  0.56547028  0.24625028    -0.73810
O165        O  0.28025693  0.62638559  0.23733801    -0.73660
O166        O  0.25791936  0.59283023  0.19938681    -0.79320
O167        O  0.25371457  0.65615616  0.23952198    -0.77520
O168        O  0.23094051  0.61338123  0.24187992    -1.13650
O169        O  0.20753503  0.65693054  0.25078101    -0.72850
C170        C  0.20326200  0.65167869  0.27806632     0.97870
C171        C  0.22371464  0.55718008  0.24361712     0.94260
Al172      Al  0.25944794  0.59768425  0.24155427     1.55560
O173        O  0.18003456  0.61448126  0.23915434    -0.77470
C174        C  0.27539096  0.64876700  0.24164628     0.98430
C175        C  0.24795855  0.59386383  0.30297651     0.93310
O176        O  0.22667748  0.58752928  0.29501088    -0.82790
O177        O  0.78011297  0.63233852  0.46120355    -0.82250
C178        C  0.72909725  0.61020875  0.06743543     0.97100
O179        O  0.73579576  0.63154670  0.05975294    -0.71370
O180        O  0.78319118  0.62877508  0.04954518    -0.74960
Al181      Al  0.75655743  0.64173830  0.02707558     1.48980
C182        C  0.80322492  0.62339505  0.03713922     0.92360
O183        O  0.77777737  0.57218575  0.50525233    -0.81180
O184        O  0.72097894  0.60312730  0.46398200    -0.74740
Al185      Al  0.77779716  0.60295452  0.48428691     1.90120
O186        O  0.73802801  0.56703564  0.50220067    -0.73810
O187        O  0.70430737  0.62770001  0.50973814    -0.73660
O188        O  0.72602426  0.59373512  0.04804650    -0.79320
O189        O  0.73077500  0.65760307  0.00635654    -0.77520
O190        O  0.75306295  0.61455825  0.50588352    -1.13650
O191        O  0.77813318  0.65772544  0.49931914    -0.72850
C192        C  0.78396165  0.65319257  0.47244692     0.97870
C193        C  0.75918796  0.55841436  0.50677079     0.94260
Al194      Al  0.72454202  0.59905528  0.50600339     1.55560
O195        O  0.80339696  0.61415626  0.01106143    -0.77470
C196        C  0.70915800  0.64988974  0.50400559     0.98430
C197        C  0.73624068  0.59618170  0.44457893     0.93310
O198        O  0.75776676  0.59013078  0.45213571    -0.82790
O199        O  0.77898467  0.63170094  0.21260579    -0.82250
C200        C  0.72775247  0.60724495  0.31770786     0.97100
O201        O  0.73480061  0.62853586  0.31058319    -0.71370
O202        O  0.78127231  0.62352909  0.30040846    -0.74960
Al203      Al  0.75592550  0.63909065  0.27884316     1.48980
C204        C  0.80202796  0.62205284  0.28844690     0.92360
O205        O  0.77763070  0.57099850  0.25394599    -0.81180
O206        O  0.72073079  0.60337028  0.21370655    -0.74740
Al207      Al  0.77747535  0.60216641  0.23455442     1.90120
O208        O  0.73770332  0.56596084  0.25018390    -0.73810
O209        O  0.70355561  0.62698077  0.26089862    -0.73660
O210        O  0.72490697  0.59106681  0.29782328    -0.79320
O211        O  0.73079105  0.65634863  0.25943482    -0.77520
O212        O  0.75231671  0.61304044  0.25630340    -1.13650
O213        O  0.77788577  0.65601370  0.25175325    -0.72850
C214        C  0.78273584  0.65230753  0.22432993     0.97870
C215        C  0.75905431  0.55716131  0.25327770     0.94260
Al216      Al  0.72380131  0.59785451  0.25565428     1.55560
O217        O  0.80368839  0.61361018  0.26196422    -0.77470
C218        C  0.70884231  0.64953030  0.25802504     0.98430
C219        C  0.73618091  0.59666101  0.19432655     0.93310
O220        O  0.75748889  0.58994180  0.20208728    -0.82790
O221        O  0.76287700  0.42814054  0.44821775    -0.82250
C222        C  0.72473659  0.39464369  0.05379340     0.97100
O223        O  0.72320861  0.41387767  0.03775913    -0.71370
O224        O  0.73802118  0.44574118  0.99644869    -0.74960
Al225      Al  0.72481776  0.41323415  0.49465899     1.48980
C226        C  0.75830372  0.45367227  0.00607182     0.92360
O227        O  0.80276906  0.39654434  0.01218925    -0.81180
O228        O  0.78174452  0.35660248  0.48494604    -0.74740
Al229      Al  0.78019165  0.41220480  0.48193232     1.90120
O230        O  0.77598752  0.37865185  0.04128279    -0.73810
O231        O  0.73195732  0.35565668  0.98355755    -0.73660
O232        O  0.73002398  0.37425293  0.04162297    -0.79320
O233        O  0.70473185  0.38398670  0.49306917    -0.77520
O234        O  0.75335234  0.39783390  0.49573650    -1.13650
O235        O  0.72538235  0.41328540  0.45205987    -0.72850
C236        C  0.74257179  0.42188215  0.43606227     0.97870
C237        C  0.79767516  0.38342421  0.03531779     0.94260
Al238      Al  0.75482131  0.36828315  0.01138906     1.55560
O239        O  0.77658227  0.43958641  0.50784827    -0.77470
C240        C  0.70987406  0.36186514  0.48705901     0.98430
C241        C  0.79241977  0.36625919  0.46226890     0.93310
O242        O  0.78688438  0.38752652  0.45410184    -0.82790
O243        O  0.78423891  0.38122672  0.28653319    -0.82250
C244        C  0.72579255  0.39511941  0.18455116     0.97100
O245        O  0.73124072  0.37464067  0.19593375    -0.71370
O246        O  0.77884395  0.37763496  0.19981366    -0.74960
Al247      Al  0.75400902  0.36689882  0.22653824     1.48980
C248        C  0.79995602  0.38336436  0.20876904     0.92360
O249        O  0.77631690  0.43856814  0.23857535    -0.81180
O250        O  0.72327910  0.40955404  0.28938956    -0.74740
Al251      Al  0.77885528  0.40871071  0.26129270     1.90120
O252        O  0.73703889  0.44291177  0.24677324    -0.73810
O253        O  0.70279527  0.38172391  0.24485019    -0.73660
O254        O  0.72304101  0.41359923  0.20158605    -0.79320
O255        O  0.72996592  0.35294261  0.25123302    -0.77520
O256        O  0.75231418  0.39551805  0.24452602    -1.13650
O257        O  0.77659014  0.35276356  0.25320451    -0.72850
C258        C  0.78538295  0.35934956  0.27787090     0.97870
C259        C  0.75787168  0.45222995  0.24231114     0.94260
Al260      Al  0.72364095  0.41088054  0.24557319     1.55560
O261        O  0.80246980  0.39605031  0.23233728    -0.77470
C262        C  0.70798178  0.35937430  0.24952451     0.98430
C263        C  0.74051907  0.41803440  0.30572114     0.93310
O264        O  0.76132346  0.42252341  0.29439355    -0.82790
O265        O  0.36848544  0.79468643  0.46295859    -0.82250
C266        C  0.38331387  0.74469908  0.07221466     0.97100
O267        O  0.36298818  0.75298833  0.06301763    -0.71370
O268        O  0.36625780  0.79957070  0.05071531    -0.74960
Al269      Al  0.35438085  0.77252539  0.02867001     1.48980
C270        C  0.37231657  0.81940700  0.03826162     0.92360
O271        O  0.42501943  0.79213217  0.51217563    -0.81180
O272        O  0.39478412  0.73568766  0.46899141    -0.74740
Al273      Al  0.39579973  0.79249954  0.48858463     1.90120
O274        O  0.42963756  0.75214325  0.50942031    -0.73810
O275        O  0.36807447  0.71915723  0.51386452    -0.73660
O276        O  0.40039128  0.74034983  0.05385995    -0.79320
O277        O  0.33901717  0.74629609  0.00903763    -0.77520
O278        O  0.38243861  0.76809127  0.50977411    -1.13650
O279        O  0.34014998  0.79296845  0.49787588    -0.72850
C280        C  0.34666223  0.79785780  0.47116311     0.97870
C281        C  0.43850490  0.77327225  0.51386546     0.94260
Al282      Al  0.39717623  0.73907976  0.51138785     1.55560
O283        O  0.38308455  0.81914392  0.01305913    -0.77470
C284        C  0.34595139  0.72434009  0.50866471     0.98430
C285        C  0.40298758  0.75089438  0.44998805     0.93310
O286        O  0.41032173  0.77180247  0.45830258    -0.82790
O287        O  0.36645225  0.79208809  0.21325569    -0.82250
C288        C  0.39037528  0.74637957  0.32258610     0.97100
O289        O  0.36913192  0.75371713  0.31538869    -0.71370
O290        O  0.36964249  0.80047385  0.30033405    -0.74960
Al291      Al  0.35734389  0.77193271  0.28113595     1.48980
C292        C  0.37394992  0.81983310  0.28566362     0.92360
O293        O  0.42597658  0.79275044  0.25613491    -0.81180
O294        O  0.39404423  0.73392220  0.21939892    -0.74740
Al295      Al  0.39530059  0.79146312  0.23580829     1.90120
O296        O  0.43181963  0.75294063  0.25333955    -0.73810
O297        O  0.37172315  0.71839136  0.26827622    -0.73660
O298        O  0.40650502  0.74247096  0.30278959    -0.79320
O299        O  0.34166322  0.74456482  0.26448996    -0.77520
O300        O  0.38416626  0.76761225  0.25956651    -1.13650
O301        O  0.34037283  0.79097796  0.25094426    -0.72850
C302        C  0.34552168  0.79608803  0.22386902     0.97870
C303        C  0.44026068  0.77457612  0.25449786     0.94260
Al304      Al  0.39993958  0.73911882  0.26097848     1.55560
O305        O  0.38360637  0.81858227  0.25987364    -0.77470
C306        C  0.34922966  0.72280008  0.26441133     0.98430
C307        C  0.40033574  0.74871563  0.19888021     0.93310
O308        O  0.40798905  0.76997330  0.20515860    -0.82790
O309        O  0.57003854  0.77691917  0.44845718    -0.82250
C310        C  0.59810925  0.73540466  0.05549723     0.97100
O311        O  0.57982964  0.73505086  0.03802929    -0.71370
O312        O  0.55018721  0.75204007  0.99623346    -0.74960
Al313      Al  0.58218915  0.73762086  0.49509737     1.48980
C314        C  0.54276224  0.77261472  0.50565145     0.92360
O315        O  0.60064492  0.81519366  0.01283108    -0.81180
O316        O  0.64075927  0.79204650  0.49036608    -0.74740
Al317      Al  0.58566540  0.79311726  0.48253681     1.90120
O318        O  0.61522445  0.78793914  0.04408860    -0.73810
O319        O  0.64049292  0.74331103  0.98856888    -0.73660
O320        O  0.61905336  0.74103620  0.04523714    -0.79320
O321        O  0.61088927  0.71660450  0.49381796    -0.77520
O322        O  0.59829707  0.76560389  0.49751104    -1.13650
O323        O  0.58351838  0.73888840  0.45235420    -0.72850
C324        C  0.57569208  0.75654412  0.43639465     0.97870
C325        C  0.61233451  0.80994223  0.03685289     0.94260
Al326      Al  0.62687128  0.76602187  0.01554420     1.55560
O327        O  0.55714871  0.79070532  0.50688857    -0.77470
C328        C  0.63316543  0.72139861  0.48834962     0.98430
C329        C  0.63334178  0.80270491  0.46652142     0.93310
O330        O  0.61228786  0.79830823  0.45655744    -0.82790
O331        O  0.61815380  0.79854224  0.28675718    -0.82250
C332        C  0.59691166  0.74134820  0.18399072     0.97100
O333        O  0.61709092  0.75039193  0.19179497    -0.71370
O334        O  0.61278277  0.79730155  0.19844006    -0.74960
Al335      Al  0.62672235  0.77228202  0.22244105     1.48980
C336        C  0.61101136  0.81866759  0.20866030     0.92360
O337        O  0.55857626  0.79712039  0.24262146    -0.81180
O338        O  0.58648616  0.74134137  0.28935951    -0.74740
Al339      Al  0.58910120  0.79695419  0.26334880     1.90120
O340        O  0.55230076  0.75724623  0.24743589    -0.73810
O341        O  0.61237194  0.72099325  0.24506359    -0.73660
O342        O  0.57950202  0.73997480  0.20274424    -0.79320
O343        O  0.64267059  0.74722481  0.24397538    -0.77520
O344        O  0.59981783  0.77028532  0.24397027    -1.13650
O345        O  0.64329103  0.79457951  0.24867384    -0.72850
C346        C  0.63934371  0.80031306  0.27572684     0.97870
C347        C  0.54429563  0.77881182  0.24319000     0.94260
Al348      Al  0.58378909  0.74209868  0.24609400     1.55560
O349        O  0.60215241  0.82159425  0.23474257    -0.77470
C350        C  0.63505050  0.72554095  0.24685270     0.98430
C351        C  0.57919383  0.75818284  0.30670663     0.93310
O352        O  0.57481065  0.77939485  0.29646052    -0.82790
O353        O  0.87007733  0.30393017  0.08796808    -0.82250
C354        C  0.89222777  0.24520649  0.18848499     0.97100
O355        O  0.87086102  0.25214995  0.18139459    -0.71370
O356        O  0.87657217  0.29923083  0.17528657    -0.74960
Al357      Al  0.86091807  0.27575840  0.15113141     1.48980
C358        C  0.87784915  0.32075020  0.16522934     0.92360
O359        O  0.93020540  0.29736163  0.12875015    -0.81180
O360        O  0.89684410  0.24348600  0.08438413    -0.74740
Al361      Al  0.89898646  0.29952163  0.10963290     1.90120
O362        O  0.93394246  0.25788142  0.12071131    -0.73810
O363        O  0.87345453  0.22465101  0.13098053    -0.73660
O364        O  0.90883806  0.24411064  0.16872794    -0.79320
O365        O  0.84382692  0.25172603  0.12890934    -0.77520
O366        O  0.88729309  0.27329018  0.12885628    -1.13650
O367        O  0.84486722  0.30091678  0.12607898    -0.72850
C368        C  0.85021173  0.30943395  0.10028565     0.97870
C369        C  0.94346678  0.27876869  0.12403518     0.94260
Al370      Al  0.90225683  0.24465624  0.12645192     1.55560
O371        O  0.88800476  0.32423698  0.13978600    -0.77470
C372        C  0.85104152  0.22973951  0.12742005     0.98430
C373        C  0.90333453  0.25988081  0.06575261     0.93310
O374        O  0.90995733  0.28094934  0.07490344    -0.82790
O375        O  0.86677569  0.28723007  0.33052424    -0.82250
C376        C  0.88814909  0.24246618  0.43948227     0.97100
O377        O  0.86647989  0.24783425  0.43183692    -0.71370
O378        O  0.86820994  0.29377879  0.41835631    -0.74960
Al379      Al  0.85568575  0.26665897  0.39761916     1.48980
C380        C  0.86974134  0.31383345  0.40472009     0.92360
O381        O  0.92454748  0.28898122  0.37706153    -0.81180
O382        O  0.89443347  0.23065858  0.33526962    -0.74740
Al383      Al  0.89445080  0.28760589  0.35485747     1.90120
O384        O  0.93065198  0.24919571  0.37263041    -0.73810
O385        O  0.86980111  0.21360803  0.38343094    -0.73660
O386        O  0.90416554  0.23738396  0.42001664    -0.79320
O387        O  0.84024622  0.24034547  0.37959082    -0.77520
O388        O  0.88290808  0.26290566  0.37691394    -1.13650
O389        O  0.83962564  0.28627400  0.36698178    -0.72850
C390        C  0.84558905  0.29138664  0.34006840     0.97870
C391        C  0.93907112  0.27086333  0.37497781     0.94260
Al392      Al  0.89865163  0.23461228  0.37786820     1.55560
O393        O  0.88001546  0.31447208  0.37909622    -0.77470
C394        C  0.84722354  0.21849805  0.38034082     0.98430
C395        C  0.90257616  0.24598593  0.31615541     0.93310
O396        O  0.90921761  0.26718353  0.32440232    -0.82790
O397        O  0.11938531  0.29033155  0.16421978    -0.82250
C398        C  0.09820753  0.24700588  0.05358732     0.97100
O399        O  0.11936760  0.25410157  0.06129995    -0.71370
O400        O  0.11945937  0.30045643  0.07640980    -0.74960
Al401      Al  0.13045509  0.27153740  0.09632525     1.48980
C402        C  0.11526474  0.31987506  0.09057118     0.92360
O403        O  0.06237936  0.29469609  0.11733612    -0.81180
O404        O  0.09010861  0.23453962  0.15692975    -0.74740
Al405      Al  0.09171076  0.29179370  0.13967142     1.90120
O406        O  0.05498006  0.25493098  0.11890970    -0.73810
O407        O  0.11428825  0.21828754  0.10968239    -0.73660
O408        O  0.08178025  0.24290064  0.07287499    -0.79320
O409        O  0.14492269  0.24375427  0.11331752    -0.77520
O410        O  0.10288768  0.26772126  0.11658226    -1.13650
O411        O  0.14679098  0.28955419  0.12791585    -0.72850
C412        C  0.14085253  0.29368096  0.15501020     0.97870
C413        C  0.04760476  0.27690763  0.11606911     0.94260
Al414      Al  0.08646109  0.23975105  0.11475315     1.55560
O415        O  0.10565862  0.31878355  0.11644652    -0.77470
C416        C  0.13690384  0.22221537  0.11285659     0.98430
C417        C  0.08266015  0.24941884  0.17654829     0.93310
O418        O  0.07620552  0.27087410  0.16909552    -0.82790
O419        O  0.11852831  0.29597707  0.41041943    -0.82250
C420        C  0.09543175  0.24715396  0.30325402     0.97100
O421        O  0.11628575  0.25560679  0.30996199    -0.71370
O422        O  0.11488782  0.30255801  0.32283625    -0.74960
Al423      Al  0.12756814  0.27467740  0.34333932     1.48980
C424        C  0.11090763  0.32231374  0.33650065     0.92360
O425        O  0.05819980  0.29578667  0.36783292    -0.81180
O426        O  0.09041414  0.23808297  0.40727278    -0.74740
Al427      Al  0.08938560  0.29504593  0.38780637     1.90120
O428        O  0.05343785  0.25570173  0.37028664    -0.73810
O429        O  0.11385181  0.22138552  0.36016070    -0.73660
O430        O  0.07941816  0.24344654  0.32321517    -0.79320
O431        O  0.14373799  0.24781112  0.36123207    -0.77520
O432        O  0.10071368  0.27063357  0.36511908    -1.13650
O433        O  0.14428850  0.29434389  0.37256540    -0.72850
C434        C  0.13972340  0.29896812  0.39984797     0.97870
C435        C  0.04443734  0.27703492  0.36762980     0.94260
Al436      Al  0.08539162  0.24193823  0.36521615     1.55560
O437        O  0.10125179  0.32175550  0.36238256    -0.77470
C438        C  0.13634107  0.22603640  0.36314143     0.98430
C439        C  0.08346536  0.25321518  0.42683564     0.93310
O440        O  0.07643332  0.27444495  0.41920412    -0.82790
O441        O  0.27790940  0.87742260  0.16339561    -0.82250
C442        C  0.23264411  0.89685275  0.05290629     0.97100
O443        O  0.23858893  0.87583399  0.06259373    -0.71370
O444        O  0.28512799  0.87838055  0.07570211    -0.74960
Al445      Al  0.25750154  0.86630797  0.09675199     1.48980
C446        C  0.30471025  0.88419372  0.08879171     0.92360
O447        O  0.27830891  0.93615327  0.11851659    -0.81180
O448        O  0.21913156  0.90613163  0.15532012    -0.74740
Al449      Al  0.27699949  0.90583960  0.13942858     1.90120
O450        O  0.23846121  0.94183643  0.11805660    -0.73810
O451        O  0.20429691  0.88077238  0.10841917    -0.73660
O452        O  0.22825636  0.91412570  0.07096274    -0.79320
O453        O  0.23083199  0.85140123  0.11574762    -0.77520
O454        O  0.25319746  0.89405208  0.11632208    -1.13650
O455        O  0.27741096  0.85068842  0.12672961    -0.72850
C456        C  0.28225616  0.85634057  0.15353848     0.97870
C457        C  0.26004723  0.95030629  0.11741498     0.94260
Al458      Al  0.22470565  0.90966950  0.11337754     1.55560
O459        O  0.30401251  0.89391251  0.11465502    -0.77470
C460        C  0.20899477  0.85852848  0.11440661     0.98430
C461        C  0.23364447  0.91311528  0.17564725     0.93310
O462        O  0.25543273  0.91918776  0.16948431    -0.82790
O463        O  0.28207928  0.87649323  0.40628786    -0.82250
C464        C  0.22865036  0.89941590  0.30185888     0.97100
O465        O  0.23707198  0.87853237  0.30874029    -0.71370
O466        O  0.28448868  0.88122411  0.31847598    -0.74960
Al467      Al  0.25794837  0.86784314  0.34075864     1.48980
C468        C  0.30459020  0.88631048  0.33091457     0.92360
O469        O  0.27850816  0.93773104  0.36475097    -0.81180
O470        O  0.22269495  0.90520091  0.40636966    -0.74740
Al471      Al  0.27925458  0.90619176  0.38414046     1.90120
O472        O  0.23859979  0.94178352  0.36837606    -0.73810
O473        O  0.20532943  0.88073494  0.35990984    -0.73660
O474        O  0.22558333  0.91561815  0.32167778    -0.79320
O475        O  0.23240401  0.85126161  0.36070374    -0.77520
O476        O  0.25424834  0.89466261  0.36275070    -1.13650
O477        O  0.27960482  0.85130999  0.36805929    -0.72850
C478        C  0.28533946  0.85560016  0.39500543     0.97870
C479        C  0.25960144  0.95120669  0.36537609     0.94260
Al480      Al  0.22533992  0.90972932  0.36391076     1.55560
O481        O  0.30476333  0.89567441  0.35689256    -0.77470
C482        C  0.21062996  0.85834733  0.36352603     0.98430
C483        C  0.23879104  0.91157303  0.42515244     0.93310
O484        O  0.25984850  0.91809836  0.41665480    -0.82790
O485        O  0.28391827  0.12519540  0.08683172    -0.82250
C486        C  0.23110492  0.11092152  0.19265049     0.97100
O487        O  0.23802827  0.13157109  0.18265786    -0.71370
O488        O  0.28513869  0.12955125  0.17346496    -0.74960
Al489      Al  0.25842032  0.14024713  0.14954048     1.48980
C490        C  0.30514342  0.12238537  0.16260303     0.92360
O491        O  0.27836959  0.06831551  0.13529316    -0.81180
O492        O  0.22356531  0.09972566  0.08897360    -0.74740
Al493      Al  0.28001241  0.09806082  0.11225991     1.90120
O494        O  0.23880716  0.06434524  0.12882959    -0.73810
O495        O  0.20579964  0.12566013  0.13469649    -0.73660
O496        O  0.22717953  0.09323657  0.17485815    -0.79320
O497        O  0.23266535  0.15459202  0.12774818    -0.77520
O498        O  0.25502313  0.11168848  0.13150550    -1.13650
O499        O  0.27940962  0.15457055  0.11992005    -0.72850
C500        C  0.28634696  0.14720697  0.09448835     0.97870
C501        C  0.25974690  0.05482545  0.13193479     0.94260
Al502      Al  0.22603310  0.09675697  0.13196328     1.55560
O503        O  0.30548247  0.11025925  0.13845861    -0.77470
C504        C  0.21079332  0.14760519  0.12800933     0.98430
C505        C  0.23990545  0.09218786  0.07097757     0.93310
O506        O  0.26023719  0.08453807  0.08095100    -0.82790
O507        O  0.27856948  0.12927469  0.33522727    -0.82250
C508        C  0.23163781  0.10835055  0.44379472     0.97100
O509        O  0.23999883  0.12925469  0.43671874    -0.71370
O510        O  0.28627634  0.12727240  0.42216273    -0.74960
Al511      Al  0.25818381  0.14027377  0.40240221     1.48980
C512        C  0.30546211  0.12220453  0.40789303     0.92360
O513        O  0.27608438  0.07008570  0.37952139    -0.81180
O514        O  0.21923782  0.10417085  0.34015373    -0.74740
Al515      Al  0.27643376  0.10076383  0.35850233     1.90120
O516        O  0.23613123  0.06631870  0.37622230    -0.73810
O517        O  0.20406243  0.12822623  0.38798328    -0.73660
O518        O  0.22574308  0.09284469  0.42410472    -0.79320
O519        O  0.23155936  0.15702088  0.38543718    -0.77520
O520        O  0.25280679  0.11334849  0.38132051    -1.13650
O521        O  0.27739127  0.15627018  0.37185296    -0.72850
C522        C  0.28239187  0.15050710  0.34503692     0.97870
C523        C  0.25723875  0.05664959  0.37785848     0.94260
Al524      Al  0.22353104  0.09892142  0.38219226     1.55560
O525        O  0.30392448  0.11182093  0.38261978    -0.77470
C526        C  0.20957491  0.15054762  0.38431992     0.98430
C527        C  0.23409973  0.09683459  0.32044022     0.93310
O528        O  0.25487190  0.08850592  0.32778766    -0.82790
O529        O  0.86508006  0.71296070  0.15946852    -0.82250
C530        C  0.88862094  0.76206797  0.05263043     0.97100
O531        O  0.86749046  0.75416260  0.05912144    -0.71370
O532        O  0.86854176  0.70739378  0.07200680    -0.74960
Al533      Al  0.85582320  0.73508724  0.09240299     1.48980
C534        C  0.87271429  0.68759587  0.08571652     0.92360
O535        O  0.92474177  0.71399330  0.11593922    -0.81180
O536        O  0.89298394  0.77095188  0.15763703    -0.74740
Al537      Al  0.89396326  0.71426343  0.13661186     1.90120
O538        O  0.92985316  0.75382171  0.12079411    -0.73810
O539        O  0.86922984  0.78838057  0.10932073    -0.73660
O540        O  0.90414894  0.76643861  0.07298208    -0.79320
O541        O  0.83947071  0.76181392  0.10971445    -0.77520
O542        O  0.88249474  0.73902747  0.11447229    -1.13650
O543        O  0.83901832  0.71531427  0.12181803    -0.72850
C544        C  0.84376599  0.71035426  0.14908641     0.97870
C545        C  0.93873553  0.73242728  0.11828244     0.94260
Al546      Al  0.89786495  0.76772744  0.11501019     1.55560
O547        O  0.88216199  0.68798535  0.11160941    -0.77470
C548        C  0.84662627  0.78364256  0.11117728     0.98430
C549        C  0.90071512  0.75523388  0.17651207     0.93310
O550        O  0.90707156  0.73416883  0.16780252    -0.82790
O551        O  0.86958724  0.71425004  0.41150755    -0.82250
C552        C  0.89291945  0.76397595  0.30435768     0.97100
O553        O  0.87124170  0.75949057  0.31272499    -0.71370
O554        O  0.86946082  0.71246195  0.32347290    -0.74960
Al555      Al  0.85997606  0.73991746  0.34625102     1.48980
C556        C  0.87199524  0.69164942  0.33538013     0.92360
O557        O  0.92779323  0.71195820  0.36544622    -0.81180
O558        O  0.90194997  0.77125252  0.40716126    -0.74740
Al559      Al  0.89777445  0.71436350  0.38709933     1.90120
O560        O  0.93625127  0.75125486  0.36942012    -0.73810
O561        O  0.87914201  0.79087827  0.36075026    -0.73660
O562        O  0.91019469  0.76550863  0.32312427    -0.79320
O563        O  0.84760906  0.76685790  0.36692768    -0.77520
O564        O  0.88783784  0.74050463  0.36601340    -1.13650
O565        O  0.84279132  0.72030272  0.37563442    -0.72850
C566        C  0.84792511  0.71325143  0.40202963     0.97870
C567        C  0.94305537  0.72938463  0.36517094     0.94260
Al568      Al  0.90569714  0.76766581  0.36522468     1.55560
O569        O  0.88298847  0.68961707  0.36048353    -0.77470
C570        C  0.85678404  0.78793891  0.36683421     0.98430
C571        C  0.90722032  0.75509134  0.42657411     0.93310
O572        O  0.91287848  0.73344973  0.41882387    -0.82790
O573        O  0.11854586  0.71386043  0.08603113    -0.82250
C574        C  0.09318335  0.76381781  0.19089452     0.97100
O575        O  0.11454116  0.75682345  0.18448931    -0.71370
O576        O  0.11361156  0.70954192  0.17413183    -0.74960
Al577      Al  0.12603481  0.73678339  0.15233323     1.48980
C578        C  0.11033704  0.68924080  0.16141688     0.92360
O579        O  0.05803327  0.71294239  0.12766664    -0.81180
O580        O  0.08727986  0.77108444  0.08661209    -0.74740
Al581      Al  0.08912808  0.71431133  0.10816339     1.90120
O582        O  0.05158912  0.75279701  0.12442692    -0.73810
O583        O  0.11119787  0.78922569  0.13316703    -0.73660
O584        O  0.07715556  0.76681523  0.17081862    -0.79320
O585        O  0.14145465  0.76306015  0.13314346    -0.77520
O586        O  0.09931604  0.73961984  0.12997559    -1.13650
O587        O  0.14343565  0.71637517  0.12470013    -0.72850
C588        C  0.13954086  0.71134720  0.09740513     0.97870
C589        C  0.04357544  0.73111820  0.12751559     0.94260
Al590      Al  0.08303227  0.76781392  0.12887629     1.55560
O591        O  0.10144061  0.68873680  0.13508251    -0.77470
C592        C  0.13382624  0.78471966  0.13086618     0.98430
C593        C  0.08047521  0.75534559  0.06765664     0.93310
O594        O  0.07573531  0.73362543  0.07590912    -0.82790
O595        O  0.12359483  0.71337892  0.33907870    -0.82250
C596        C  0.09270876  0.76287569  0.44163595     0.97100
O597        O  0.11432617  0.75554570  0.43726193    -0.71370
O598        O  0.11449908  0.70831784  0.42639719    -0.74960
Al599      Al  0.12794568  0.73589405  0.40599497     1.48980
C600        C  0.11144319  0.68822886  0.41311398     0.92360
O601        O  0.06145648  0.71238359  0.37652796    -0.81180
O602        O  0.09282913  0.77036751  0.33678339    -0.74740
Al603      Al  0.09330680  0.71369864  0.35895167     1.90120
O604        O  0.05522389  0.75207434  0.37119673    -0.73810
O605        O  0.11405980  0.78839885  0.38545649    -0.73660
O606        O  0.07798427  0.76607853  0.42012813    -0.79320
O607        O  0.14451094  0.76255012  0.38870850    -0.77520
O608        O  0.10250816  0.73890558  0.38140850    -1.13650
O609        O  0.14688539  0.71571691  0.37937448    -0.72850
C610        C  0.14408282  0.71094781  0.35176894     0.97870
C611        C  0.04703361  0.73037232  0.37318455     0.94260
Al612      Al  0.08629116  0.76707377  0.37877743     1.55560
O613        O  0.10408491  0.68813584  0.38616226    -0.77470
C614        C  0.13679609  0.78408345  0.38512200     0.98430
C615        C  0.08617234  0.75463505  0.31770207     0.93310
O616        O  0.08149367  0.73290104  0.32586649    -0.82790
O617        O  0.69928694  0.88333406  0.07756770    -0.82250
C618        C  0.75335286  0.89847203  0.18352754     0.97100
O619        O  0.74750998  0.87738778  0.17410429    -0.71370
O620        O  0.70122452  0.88296430  0.16559799    -0.74960
Al621      Al  0.72574051  0.86958061  0.14119956     1.48980
C622        C  0.68026716  0.88684950  0.15516673     0.92360
O623        O  0.70622002  0.94082227  0.12386865    -0.81180
O624        O  0.76130526  0.90900444  0.08062756    -0.74740
Al625      Al  0.70420247  0.91089368  0.10212120     1.90120
O626        O  0.74605432  0.94453634  0.11933042    -0.73810
O627        O  0.77802840  0.88212532  0.12581604    -0.73660
O628        O  0.75711561  0.91584805  0.16518419    -0.79320
O629        O  0.75047096  0.85363572  0.11897528    -0.77520
O630        O  0.72940679  0.89743143  0.12181767    -1.13650
O631        O  0.70175684  0.85588524  0.11329989    -0.72850
C632        C  0.69269172  0.86312097  0.08849812     0.97870
C633        C  0.72524245  0.95397838  0.12372792     0.94260
Al634      Al  0.75845856  0.91189224  0.12259906     1.55560
O635        O  0.67819843  0.89881791  0.13050883    -0.77470
C636        C  0.77263470  0.86000093  0.12027319     0.98430
C637        C  0.74601254  0.91646096  0.06128256     0.93310
O638        O  0.72467059  0.92338337  0.06922092    -0.82790
O639        O  0.70880213  0.87431480  0.33550286    -0.82250
C640        C  0.76250352  0.90316293  0.43483721     0.97100
O641        O  0.75958464  0.88078396  0.42832976    -0.71370
O642        O  0.71285005  0.87963760  0.42308640    -0.74960
Al643      Al  0.73764311  0.86769910  0.39849003     1.48980
C644        C  0.69137141  0.87974218  0.41349236     0.92360
O645        O  0.70832222  0.93391553  0.37805396    -0.81180
O646        O  0.76435377  0.90691913  0.32953256    -0.74740
Al647      Al  0.70952480  0.90322105  0.35772412     1.90120
O648        O  0.74671474  0.94270375  0.36740818    -0.73810
O649        O  0.78706804  0.88572306  0.37659546    -0.73660
O650        O  0.76365402  0.91922851  0.41425138    -0.79320
O651        O  0.76281278  0.85378161  0.37626964    -0.77520
O652        O  0.73698953  0.89433247  0.37598682    -1.13650
O653        O  0.71539649  0.84884501  0.37313332    -0.72850
C654        C  0.70757621  0.85312521  0.34671446     0.97870
C655        C  0.72546118  0.94937115  0.37518623     0.94260
Al656      Al  0.76367476  0.91238084  0.37212875     1.55560
O657        O  0.68701841  0.88883996  0.38764658    -0.77470
C658        C  0.78395500  0.86275046  0.37523498     0.98430
C659        C  0.74646508  0.91183907  0.31226294     0.93310
O660        O  0.72578777  0.91748637  0.32328923    -0.82790
O661        O  0.70765635  0.13472824  0.15507075    -0.82250
C662        C  0.76288647  0.10737781  0.05612494     0.97100
O663        O  0.75775548  0.12947647  0.06171219    -0.71370
O664        O  0.71108347  0.12503409  0.06779258    -0.74960
Al665      Al  0.73462005  0.14109699  0.09087917     1.48980
C666        C  0.68977298  0.12500765  0.07793169     0.92360
O667        O  0.71146831  0.07351467  0.11595190    -0.81180
O668        O  0.76554243  0.10690655  0.16124839    -0.74740
Al669      Al  0.71034430  0.10502834  0.13449517     1.90120
O670        O  0.75062433  0.06839425  0.12580415    -0.73810
O671        O  0.78551485  0.12919253  0.11357200    -0.73660
O672        O  0.76524274  0.09200723  0.07733198    -0.79320
O673        O  0.75821670  0.15856407  0.11178203    -0.77520
O674        O  0.73672644  0.11554984  0.11508710    -1.13650
O675        O  0.71089567  0.15875584  0.11534384    -0.72850
C676        C  0.70451041  0.15521594  0.14245129     0.97870
C677        C  0.72956908  0.05947717  0.12079998     0.94260
Al678      Al  0.76488248  0.10018755  0.11916179     1.55560
O679        O  0.68620160  0.11659958  0.10431161    -0.77470
C680        C  0.78006433  0.15182998  0.11471876     0.98430
C681        C  0.74888344  0.10002006  0.17922364     0.93310
O682        O  0.72815502  0.09319416  0.16945050    -0.82790
O683        O  0.69686739  0.12672756  0.41456206    -0.82250
C684        C  0.74883586  0.10878817  0.30778498     0.97100
O685        O  0.74211138  0.12982192  0.31654569    -0.71370
O686        O  0.69516193  0.12478928  0.32672831    -0.74960
Al687      Al  0.72084682  0.13850299  0.34953283     1.48980
C688        C  0.67521865  0.11814047  0.33842219     0.92360
O689        O  0.70254350  0.06722141  0.37213817    -0.81180
O690        O  0.75880587  0.10063224  0.41070243    -0.74740
Al691      Al  0.70117564  0.09809059  0.39191344     1.90120
O692        O  0.74237448  0.06408928  0.37479914    -0.73810
O693        O  0.77345767  0.12567009  0.36332142    -0.73660
O694        O  0.75151148  0.09140189  0.32652041    -0.79320
O695        O  0.74656126  0.15481070  0.37045568    -0.77520
O696        O  0.72528319  0.11100174  0.37011974    -1.13650
O697        O  0.69753440  0.15282772  0.37715912    -0.72850
C698        C  0.68954163  0.14637714  0.40275631     0.97870
C699        C  0.72156008  0.05417571  0.37341648     0.94260
Al700      Al  0.75425173  0.09646749  0.36884489     1.55560
O701        O  0.67497555  0.10797439  0.36424926    -0.77470
C702        C  0.76861366  0.14776103  0.36932510     0.98430
C703        C  0.74426672  0.09339302  0.43100586     0.93310
O704        O  0.72249235  0.08707998  0.42449568    -0.82790
C705        C  0.74554232  0.08084819  0.23015874    -0.21760
C706        C  0.75291837  0.10066051  0.21199885    -0.09800
C707        C  0.76126618  0.12223702  0.22567297     0.29060
C708        C  0.76087613  0.12439050  0.25701839    -0.21760
C709        C  0.75278767  0.10485765  0.27525236    -0.09810
C710        C  0.74585647  0.08272265  0.26157674     0.29060
F711        F  0.73770308  0.06355387  0.27842084    -0.20340
H712        H  0.73889114  0.06414484  0.21993415     0.17430
H713        H  0.76621210  0.14163604  0.26705113     0.17440
F714        F  0.76800012  0.14187652  0.20867625    -0.20320
C715        C  0.76997560  0.11075343  0.47204512    -0.21760
C716        C  0.75250243  0.09342852  0.46279602    -0.09800
C717        C  0.74171550  0.07804001  0.48459936     0.29060
C718        C  0.74736248  0.08096778  0.01513739    -0.21760
C719        C  0.76331427  0.09963518  0.02442837    -0.09810
C720        C  0.77504585  0.11412718  0.00259175     0.29060
F721        F  0.79042877  0.13240071  0.01093770    -0.20340
H722        H  0.77854849  0.12284318  0.45574964     0.17430
H723        H  0.73778276  0.06992553  0.03170787     0.17440
F724        F  0.72505421  0.06083076  0.47655334    -0.20320
C725        C  0.70094492  0.98769458  0.36709155    -0.21760
C726        C  0.72143243  0.97573468  0.37946318    -0.09800
C727        C  0.74042728  0.98968692  0.39186604     0.29060
C728        C  0.73981871  0.01506318  0.39003071    -0.21760
C729        C  0.72023152  0.02723068  0.37595834    -0.09810
C730        C  0.70025866  0.01342926  0.36541260     0.29060
F731        F  0.68082049  0.02463918  0.35219339    -0.20340
H732        H  0.68622035  0.97714856  0.35724422     0.17430
H733        H  0.75503324  0.02523284  0.39937155     0.17440
F734        F  0.76009425  0.97869331  0.40492407    -0.20320
C735        C  0.72985658  0.90298016  0.23031069    -0.21760
C736        C  0.75270142  0.90311512  0.21615095    -0.09800
C737        C  0.77382517  0.90719890  0.23342273     0.29060
C738        C  0.77193023  0.91039228  0.26476042    -0.21760
C739        C  0.74889144  0.91012043  0.27900671    -0.09810
C740        C  0.72783150  0.90658318  0.26119467     0.29060
F741        F  0.70516843  0.90565176  0.27363391    -0.20340
H742        H  0.71335862  0.89998983  0.21737306     0.17430
H743        H  0.78842564  0.91295047  0.27788008     0.17440
F744        F  0.79617861  0.90741326  0.22018306    -0.20320
C745        C  0.74128857  0.93108253  0.00776646    -0.21760
C746        C  0.75301434  0.91592800  0.02901570    -0.09800
C747        C  0.77032015  0.89864301  0.01882637     0.29060
C748        C  0.77455532  0.89564541  0.48806252    -0.21760
C749        C  0.76227852  0.91022001  0.46683981    -0.09810
C750        C  0.74607939  0.92848730  0.47693423     0.29060
F751        F  0.73333987  0.94240174  0.45689579    -0.20340
H752        H  0.72790169  0.94446256  0.01496839     0.17430
H753        H  0.78675678  0.88121563  0.48071086     0.17440
F754        F  0.78191862  0.88334826  0.03840484    -0.20320
C755        C  0.70499134  0.99433746  0.11272661    -0.21760
C756        C  0.72376457  0.98085873  0.12682825    -0.09800
C757        C  0.74319126  0.99347312  0.14037822     0.29060
C758        C  0.74452794  0.01891277  0.13845193    -0.21760
C759        C  0.72654943  0.03251077  0.12303002    -0.09810
C760        C  0.70631814  0.02004277  0.11080896     0.29060
F761        F  0.68846517  0.03248412  0.09594231    -0.20340
H762        H  0.68996986  0.98490754  0.10189145     0.17430
H763        H  0.75994213  0.02797845  0.14892289     0.17440
F764        F  0.76122069  0.98111739  0.15507991    -0.20320
C765        C  0.09827523  0.78291428  0.24113908    -0.21760
C766        C  0.08669936  0.76575027  0.22260208    -0.09800
C767        C  0.07258887  0.74701739  0.23541066     0.29060
C768        C  0.07130723  0.74455138  0.26653464    -0.21760
C769        C  0.08405574  0.76075970  0.28540297    -0.09810
C770        C  0.09663858  0.78073648  0.27248566     0.29060
F771        F  0.10878357  0.79704153  0.28993620    -0.20340
H772        H  0.10949469  0.79724992  0.23134179     0.17430
H773        H  0.06129999  0.72912804  0.27583451     0.17440
F774        F  0.06204314  0.72969637  0.21780631    -0.20320
C775        C  0.06620378  0.74568734  0.01594828    -0.21760
C776        C  0.07897617  0.76148288  0.03530057    -0.09800
C777        C  0.09287290  0.78077149  0.02283826     0.29060
C778        C  0.09591585  0.78246980  0.49165519    -0.21760
C779        C  0.08448820  0.76556025  0.47267907    -0.09810
C780        C  0.06885316  0.74774919  0.48484952     0.29060
F781        F  0.05817450  0.73079706  0.46684074    -0.20340
H782        H  0.05525671  0.73079362  0.02493206     0.17430
H783        H  0.10823358  0.79612036  0.48240353     0.17440
F784        F  0.10519303  0.79664369  0.04070559    -0.20320
C785        C  0.84473747  0.83190630  0.35905622    -0.21760
C786        C  0.84057730  0.80888646  0.37259604    -0.09800
C787        C  0.81912960  0.80506466  0.38932266     0.29060
C788        C  0.80139106  0.82315708  0.39049364    -0.21760
C789        C  0.80461511  0.84554693  0.37533383    -0.09810
C790        C  0.82681009  0.85030214  0.36049968     0.29060
F791        F  0.83052980  0.87197691  0.34605091    -0.20340
H792        H  0.86122385  0.83518652  0.34614786     0.17430
H793        H  0.78475891  0.81942536  0.40296841     0.17440
F794        F  0.81493792  0.78352175  0.40394928    -0.20320
C795        C  0.98152972  0.70728566  0.37939924    -0.21760
C796        C  0.96944287  0.72506980  0.36179063    -0.09800
C797        C  0.98326437  0.74230842  0.34559365     0.29060
C798        C  0.00850900  0.74310952  0.34892558    -0.21760
C799        C  0.02059981  0.72670202  0.36834215    -0.09810
C800        C  0.00711476  0.70799204  0.38258748     0.29060
F801        F  0.01835442  0.69161578  0.40110156    -0.20340
H802        H  0.97108322  0.69402701  0.39229890     0.17430
H803        H  0.01861061  0.75714237  0.33683795     0.17440
F804        F  0.97215439  0.75929359  0.32774033    -0.20320
C805        C  0.83469101  0.82840379  0.11162116    -0.21760
C806        C  0.82807052  0.80352770  0.11417142    -0.09800
C807        C  0.80316972  0.79771368  0.11857105     0.29060
C808        C  0.78553798  0.81617838  0.11989135    -0.21760
C809        C  0.79202449  0.84100794  0.11725020    -0.09810
C810        C  0.81690900  0.84700035  0.11322126     0.29060
F811        F  0.82406987  0.87073515  0.11047176    -0.20340
H812        H  0.85363198  0.83348631  0.10812482     0.17430
H813        H  0.76665363  0.81091441  0.12349291     0.17440
F814        F  0.79563686  0.77412467  0.12184272    -0.20320
C815        C  0.89062924  0.78378583  0.25348377    -0.21760
C816        C  0.89822032  0.76437887  0.27215390    -0.09800
C817        C  0.90837898  0.74332841  0.25949053     0.29060
C818        C  0.91025839  0.74129723  0.22845041    -0.21760
C819        C  0.90185685  0.76016140  0.20924124    -0.09810
C820        C  0.89268932  0.78186554  0.22208991     0.29060
F821        F  0.88487164  0.80071939  0.20447892    -0.20340
H822        H  0.88253978  0.80005328  0.26317704     0.17430
H823        H  0.91740169  0.72431478  0.21949630     0.17440
F824        F  0.91491753  0.72397032  0.27714962    -0.20320
C825        C  0.92312184  0.75668589  0.47928815    -0.21760
C826        C  0.90420593  0.76075879  0.45854792    -0.09800
C827        C  0.88102593  0.76791576  0.46882502     0.29060
C828        C  0.87648403  0.76970618  0.99957724    -0.21760
C829        C  0.89508606  0.76485754  0.02057960    -0.09810
C830        C  0.91875248  0.75915299  0.01019019     0.29060
F831        F  0.93712622  0.75417749  0.02987134    -0.20340
H832        H  0.94102967  0.75099972  0.47158164     0.17430
H833        H  0.85810746  0.77395729  0.00704180     0.17440
F834        F  0.86225313  0.77127456  0.44917282    -0.20320
C835        C  0.97757310  0.74595950  0.14120588    -0.21760
C836        C  0.96549468  0.72955502  0.12200705    -0.09800
C837        C  0.97919312  0.71122567  0.10757426     0.29060
C838        C  0.00479133  0.71045999  0.11106706    -0.21760
C839        C  0.01681204  0.72784707  0.12909426    -0.09810
C840        C  0.00284573  0.74512858  0.14478806     0.29060
F841        F  0.01378533  0.76174946  0.16301419    -0.20340
H842        H  0.96738433  0.75977788  0.15334240     0.17430
H843        H  0.01531436  0.69723225  0.09840547     0.17440
F844        F  0.96810425  0.69509197  0.08887787    -0.20320
C845        C  0.21751673  0.08724967  0.23869963    -0.21760
C846        C  0.22882306  0.10795714  0.22567767    -0.09800
C847        C  0.23974859  0.12545690  0.24473439     0.29060
C848        C  0.23972772  0.12204199  0.27566894    -0.21760
C849        C  0.22927003  0.10113647  0.28850362    -0.09810
C850        C  0.21777045  0.08380757  0.27007241     0.29060
F851        F  0.20762006  0.06333854  0.28226932    -0.20340
H852        H  0.20908643  0.07349856  0.22461146     0.17430
H853        H  0.24886741  0.13541723  0.28964487     0.17440
F854        F  0.25182586  0.14530224  0.23363205    -0.20320
C855        C  0.21331968  0.09716919  0.02488365    -0.21760
C856        C  0.23651474  0.09336388  0.03794202    -0.09800
C857        C  0.25729382  0.09287128  0.01908189     0.29060
C858        C  0.25495187  0.09694464  0.48837933    -0.21760
C859        C  0.23205825  0.10133799  0.47556539    -0.09810
C860        C  0.21105467  0.10097307  0.49369356     0.29060
F861        F  0.18868614  0.10526585  0.48148564    -0.20340
H862        H  0.19710786  0.09773920  0.03884734     0.17430
H863        H  0.27128276  0.09735706  0.47454718     0.17440
F864        F  0.28022610  0.08986920  0.03029632    -0.20320
C865        C  0.16645116  0.84549789  0.36568697    -0.21760
C866        C  0.19133045  0.84007826  0.37054057    -0.09800
C867        C  0.19771397  0.81667595  0.38153797     0.29060
C868        C  0.17977343  0.79899241  0.38653869    -0.21760
C869        C  0.15496301  0.80403017  0.38089902    -0.09810
C870        C  0.14837338  0.82766101  0.37076209     0.29060
F871        F  0.12465463  0.83337206  0.36497138    -0.20340
H872        H  0.16102136  0.86338582  0.35731141     0.17430
H873        H  0.18546350  0.78114419  0.39478794     0.17440
F874        F  0.22134349  0.81075026  0.38764519    -0.20320
C875        C  0.28133767  0.99073891  0.37736981    -0.21760
C876        C  0.26118452  0.97834644  0.36490509    -0.09800
C877        C  0.24061898  0.99207717  0.35590838     0.29060
C878        C  0.23970073  0.01723935  0.36070912    -0.21760
C879        C  0.25930297  0.02966786  0.37422431    -0.09810
C880        C  0.28050292  0.01626761  0.38188318     0.29060
F881        F  0.30001528  0.02760930  0.39455120    -0.20340
H882        H  0.29728581  0.98054901  0.38475172     0.17430
H883        H  0.22345072  0.02706305  0.35355675     0.17440
F884        F  0.22105926  0.98110928  0.34278437    -0.20320
C885        C  0.16434588  0.84682527  0.11699759    -0.21760
C886        C  0.18922404  0.84026286  0.11907399    -0.09800
C887        C  0.19526240  0.81560082  0.12510744     0.29060
C888        C  0.17704507  0.79812746  0.12866362    -0.21760
C889        C  0.15219537  0.80443542  0.12652940    -0.09810
C890        C  0.14590918  0.82908427  0.12074386     0.29060
F891        F  0.12213060  0.83601818  0.11843219    -0.20340
H892        H  0.15916075  0.86564124  0.11233706     0.17430
H893        H  0.18263472  0.77941952  0.13329031     0.17440
F894        F  0.21886074  0.80803277  0.12753901    -0.20320
C895        C  0.22983289  0.92803070  0.25803248    -0.21760
C896        C  0.22386493  0.90486190  0.26988512    -0.09800
C897        C  0.21713389  0.88593550  0.25015685     0.29060
C898        C  0.21798144  0.88972789  0.21910088    -0.21760
C899        C  0.22619878  0.91213465  0.20731601    -0.09810
C900        C  0.23140973  0.93156094  0.22688181     0.29060
F901        F  0.23921783  0.95347324  0.21588080    -0.20340
H902        H  0.23518707  0.94279657  0.27283525     0.17430
H903        H  0.21417646  0.87449593  0.20426475     0.17440
F904        F  0.21112675  0.86334918  0.26085633    -0.20320
C905        C  0.21738842  0.91845051  0.00601379    -0.21760
C906        C  0.23245105  0.90079218  0.02006371    -0.09800
C907        C  0.24872137  0.88704317  0.00239533     0.29060
C908        C  0.25023741  0.89119289  0.47174605    -0.21760
C909        C  0.23501224  0.90817302  0.45749548    -0.10450
C910        C  0.21838034  0.92189286  0.47460759     0.29060
F911        F  0.20402734  0.93911300  0.46125688    -0.20340
H912        H  0.20492401  0.92940617  0.01926101     0.17430
H913        H  0.26375641  0.88128606  0.45900851     0.17440
F914        F  0.26405364  0.87017464  0.01479284    -0.20320
C915        C  0.24672352  0.99171590  0.10189951    -0.21760
C916        C  0.26330914  0.97709087  0.11785081    -0.09800
C917        C  0.28021664  0.98829143  0.13742439     0.29060
C918        C  0.27961466  0.01378189  0.14180973    -0.21760
C919        C  0.26200444  0.02816728  0.12697048    -0.09810
C920        C  0.24615717  0.01694522  0.10612256     0.29060
F921        F  0.23001891  0.03039617  0.08962583    -0.20340
H922        H  0.23370200  0.98345823  0.08661036     0.17430
H923        H  0.29219434  0.02210645  0.15756888     0.17440
F924        F  0.29608539  0.97447617  0.15382508    -0.20320
C925        C  0.16546634  0.16345383  0.37857410    -0.21760
C926        C  0.19048648  0.16953175  0.37885841    -0.09800
C927        C  0.19722632  0.19417811  0.37374728     0.29060
C928        C  0.17947847  0.21207690  0.36871849    -0.21760
C929        C  0.15448558  0.20615491  0.36848100    -0.09810
C930        C  0.14758821  0.18153734  0.37344540     0.29060
F931        F  0.12366161  0.17490186  0.37358497    -0.20340
H932        H  0.15970370  0.14469426  0.38239881     0.17430
H933        H  0.18548507  0.23076407  0.36489540     0.17440
F934        F  0.22104439  0.20123769  0.37346366    -0.20320
C935        C  0.16649964  0.16011386  0.12769173    -0.21760
C936        C  0.19119537  0.16564053  0.12169986    -0.09800
C937        C  0.19724384  0.18922920  0.11108497     0.29060
C938        C  0.17927642  0.20705338  0.10794526    -0.21760
C939        C  0.15477315  0.20197056  0.11499746    -0.09810
C940        C  0.14833520  0.17812534  0.12428883     0.29060
F941        F  0.12480220  0.17247858  0.13114215    -0.20340
H942        H  0.16133561  0.14207044  0.13578260     0.17430
H943        H  0.18470732  0.22508980  0.10007615     0.17440
F944        F  0.22061836  0.19537376  0.10401470    -0.20320
C945        C  0.06437065  0.25070900  0.22771101    -0.21760
C946        C  0.08329988  0.24298245  0.20867095    -0.09800
C947        C  0.10492185  0.23348754  0.22124834     0.29060
C948        C  0.10825683  0.23361087  0.25239980    -0.21760
C949        C  0.08985215  0.24256023  0.27140123    -0.09810
C950        C  0.06741882  0.25012661  0.25894994     0.29060
F951        F  0.04936676  0.25907884  0.27674356    -0.20340
H952        H  0.04771040  0.25834153  0.21830457     0.17430
H953        H  0.12566861  0.22774775  0.26164212     0.17440
F954        F  0.12375633  0.22646228  0.20335915    -0.20320
C955        C  0.06730310  0.25657101  0.47882810    -0.21760
C956        C  0.08482325  0.24706287  0.45902232    -0.09800
C957        C  0.10559881  0.23512036  0.47070612     0.29060
C958        C  0.10952841  0.23429613  0.00177097    -0.21760
C959        C  0.09243940  0.24464385  0.02148192    -0.09810
C960        C  0.07086589  0.25507213  0.00988436     0.29060
F961        F  0.05422071  0.26558671  0.02844679    -0.20340
H962        H  0.05130788  0.26602167  0.47017849     0.17430
H963        H  0.12625981  0.22624799  0.01042669     0.17440
F964        F  0.12305735  0.22610948  0.45208631    -0.20320
C965        C  0.80361170  0.20627705  0.38486198    -0.21760
C966        C  0.82796135  0.19937502  0.37880944    -0.09800
C967        C  0.83281134  0.17494212  0.37104162     0.29060
C968        C  0.81347710  0.15811996  0.36851705    -0.21760
C969        C  0.78903305  0.16533525  0.37379303    -0.09810
C970        C  0.78442765  0.18960066  0.38247021     0.29060
F971        F  0.76137982  0.19742247  0.38852420    -0.20340
H972        H  0.79924342  0.22486345  0.39144180     0.17430
H973        H  0.81763394  0.13950740  0.36187523     0.17440
F974        F  0.85597592  0.16749841  0.36499847    -0.20320
C975        C  0.97831544  0.29455388  0.38434214    -0.21760
C976        C  0.96591827  0.27450132  0.37161223    -0.09800
C977        C  0.97942823  0.25764185  0.35437708     0.29060
C978        C  0.00470823  0.25985113  0.35165604    -0.21760
C979        C  0.01740236  0.27890855  0.36578074    -0.09810
C980        C  0.00394780  0.29671204  0.38161501     0.29060
F981        F  0.01564470  0.31519030  0.39599959    -0.20340
H982        H  0.96830947  0.30800901  0.39725816     0.17430
H983        H  0.01457546  0.24605489  0.33908269     0.17440
F984        F  0.96822894  0.23885146  0.33994859    -0.20320
C985        C  0.84067547  0.18498482  0.12543191    -0.21760
C986        C  0.83320348  0.20967061  0.12302232    -0.09800
C987        C  0.80840773  0.21485500  0.11766216     0.29060
C988        C  0.79156353  0.19586551  0.11527782    -0.21760
C989        C  0.79885070  0.17117911  0.11799629    -0.09810
C990        C  0.82369713  0.16586109  0.12292862     0.29060
F991        F  0.83158810  0.14234457  0.12559398    -0.20340
H992        H  0.85966871  0.18043490  0.12963187     0.17430
H993        H  0.77262259  0.20067498  0.11113865     0.17440
F994        F  0.80024465  0.23826846  0.11473635    -0.20320
C995        C  0.91878326  0.24978218  0.23360496    -0.21760
C996        C  0.89764145  0.23993255  0.22047142    -0.09800
C997        C  0.88009406  0.22859999  0.23908331     0.29060
C998        C  0.88302260  0.22848852  0.27040923    -0.21760
C999        C  0.90309256  0.24030514  0.28366213    -0.09810
C1000       C  0.92136196  0.25032376  0.26494431     0.29060
F1001       F  0.94108810  0.26177284  0.27699770    -0.20340
H1002       H  0.93241966  0.25876284  0.21971092     0.17430
H1003       H  0.86864221  0.22085796  0.28436547     0.17440
F1004       F  0.85955742  0.21867469  0.22703878    -0.20320
C1005       C  0.89692434  0.23075581  0.02279491    -0.21760
C1006       C  0.90247296  0.25458677  0.03297861    -0.09800
C1007       C  0.90510565  0.27355351  0.01152887     0.29060
C1008       C  0.90143668  0.26887378  0.48100972    -0.21760
C1009       C  0.89511657  0.24536182  0.47116076    -0.09810
C1010       C  0.89321517  0.22616873  0.49209837     0.29060
F1011       F  0.88699804  0.20329773  0.48299765    -0.20340
H1012       H  0.89474276  0.21577786  0.03867879     0.17430
H1013       H  0.90272904  0.28390565  0.46501541     0.17440
F1014       F  0.91006156  0.29690538  0.01998293    -0.20320
C1015       C  0.98387757  0.29943692  0.13314503    -0.21760
C1016       C  0.97005869  0.28089462  0.11949666    -0.09800
C1017       C  0.98191812  0.26370322  0.10096135     0.29060
C1018       C  0.00718796  0.26380837  0.09828999    -0.21760
C1019       C  0.02119606  0.28112251  0.11362625    -0.09810
C1020       C  0.00943135  0.29955875  0.13029905     0.29060
F1021       F  0.02265319  0.31643573  0.14563496    -0.20340
H1022       H  0.97504346  0.31306768  0.14703454     0.17430
H1023       H  0.01595399  0.24968388  0.08504952     0.17440
F1024       F  0.96914479  0.24644195  0.08563744    -0.20320
C1025       C  0.65971452  0.80712708  0.32531760    -0.21760
C1026       C  0.65949732  0.81026855  0.29391289    -0.09800
C1027       C  0.67813192  0.82406053  0.28010066     0.29060
C1028       C  0.69536085  0.83616626  0.29764889    -0.21760
C1029       C  0.69458251  0.83447356  0.32915232    -0.09810
C1030       C  0.67739979  0.81886686  0.34287844     0.29060
F1031       F  0.67641258  0.81658114  0.37325581    -0.20340
H1032       H  0.64575491  0.79618269  0.33629733     0.17430
H1033       H  0.70845370  0.84815699  0.28666040     0.17440
F1034       F  0.67855855  0.82754058  0.24982723    -0.20320
C1035       C  0.63713540  0.87970647  0.17741289    -0.21760
C1036       C  0.66023498  0.87117422  0.16777516    -0.09800
C1037       C  0.66543057  0.84599877  0.17148691     0.29060
C1038       C  0.64838533  0.82997633  0.18284364    -0.21760
C1039       C  0.62576410  0.83797307  0.19336624    -0.09810
C1040       C  0.62016187  0.86323191  0.19108070     0.29060
F1041       F  0.59858779  0.87183636  0.20174171    -0.20340
H1042       H  0.63266327  0.89898789  0.17543875     0.17430
H1043       H  0.65383948  0.81094234  0.18482173     0.17440
F1044       F  0.68736829  0.83607042  0.16467124    -0.20320
C1045       C  0.59287589  0.74111465  0.38789968    -0.21760
C1046       C  0.57428002  0.75381189  0.40321815    -0.09800
C1047       C  0.55594665  0.76560970  0.38631686     0.29060
C1048       C  0.55694456  0.76571672  0.35480724    -0.21760
C1049       C  0.57613868  0.75398708  0.33949151    -0.09810
C1050       C  0.59392697  0.74129309  0.35633399     0.29060
F1051       F  0.61337132  0.73080921  0.34243881    -0.20340
H1052       H  0.60740975  0.73218377  0.40043516     0.17430
H1053       H  0.54303670  0.77561812  0.34229118     0.17440
F1054       F  0.53724292  0.77730286  0.40026648    -0.20320
C1055       C  0.61628017  0.72486352  0.10531772    -0.21760
C1056       C  0.59541198  0.73078359  0.08838784    -0.09800
C1057       C  0.57341565  0.73586877  0.10382965     0.29060
C1058       C  0.57314061  0.73720928  0.13549703    -0.21760
C1059       C  0.59472033  0.73343858  0.15211780    -0.09810
C1060       C  0.61598855  0.72604948  0.13666482     0.29060
F1061       F  0.63709265  0.72136741  0.15181067    -0.20340
H1062       H  0.63335573  0.72053902  0.09417764     0.17430
H1063       H  0.55657975  0.74299668  0.14677622     0.17440
F1064       F  0.55275740  0.74165145  0.08837046    -0.20320
C1065       C  0.63964155  0.84661951  0.03636776    -0.21760
C1066       C  0.62810815  0.82781010  0.05275683    -0.09800
C1067       C  0.63772161  0.82133535  0.08118146     0.29060
C1068       C  0.65927833  0.83200373  0.09171583    -0.21760
C1069       C  0.67156281  0.84999413  0.07482011    -0.09810
C1070       C  0.66110581  0.85765851  0.04720817     0.29060
F1071       F  0.67190337  0.87535867  0.03021987    -0.20340
H1072       H  0.63302929  0.85162698  0.01418596     0.17430
H1073       H  0.66633318  0.82605361  0.11327339     0.17440
F1074       F  0.62704113  0.80348928  0.09810340    -0.20320
C1075       C  0.66760860  0.83272113  0.46841543    -0.21760
C1076       C  0.64781027  0.82279800  0.45258141    -0.09800
C1077       C  0.64023331  0.83443994  0.42563821     0.29060
C1078       C  0.65300450  0.85479089  0.41433071    -0.21760
C1079       C  0.67343232  0.86406449  0.42964820    -0.09810
C1080       C  0.68003852  0.85323968  0.45747228     0.29060
F1081       F  0.69935413  0.86171626  0.47359133    -0.20340
H1082       H  0.67341959  0.82474081  0.48962770     0.17430
H1083       H  0.64776311  0.86233957  0.39266430     0.17440
F1084       F  0.62089444  0.82584194  0.40969548    -0.20320
C1085       C  0.47867065  0.76354176  0.22875660    -0.21760
C1086       C  0.46672447  0.77822279  0.25001457    -0.09800
C1087       C  0.48020201  0.79589672  0.26584318     0.29060
C1088       C  0.50560648  0.79766117  0.26163448    -0.21760
C1089       C  0.51762362  0.78195036  0.24149092    -0.09810
C1090       C  0.50383611  0.76539652  0.22444657     0.29060
F1091       F  0.51492568  0.75034514  0.20441384    -0.20340
H1092       H  0.46848274  0.75028832  0.21569915     0.17430
H1093       H  0.51607978  0.81012776  0.27548182     0.17440
F1094       F  0.46914460  0.81020514  0.28667690    -0.20320
C1095       C  0.32119131  0.84745391  0.17718455    -0.21760
C1096       C  0.29716190  0.84004781  0.17184501    -0.09800
C1097       C  0.28859154  0.81762894  0.18336157     0.29060
C1098       C  0.30421939  0.80296273  0.20089724    -0.21760
C1099       C  0.32853893  0.81030476  0.20549927    -0.09810
C1100       C  0.33698526  0.83247557  0.19318354     0.29060
F1101       F  0.36038908  0.84007021  0.19749025    -0.20340
H1102       H  0.32781697  0.86486848  0.16861506     0.17430
H1103       H  0.29758702  0.78588588  0.21041382     0.17440
F1104       F  0.26524398  0.81032373  0.17818668    -0.20320
C1105       C  0.34704324  0.85557649  0.27596332    -0.21760
C1106       C  0.36280796  0.84312542  0.29589641    -0.09800
C1107       C  0.36255872  0.84959296  0.32641475     0.29060
C1108       C  0.34556011  0.86680982  0.33698598    -0.21760
C1109       C  0.32764201  0.87678777  0.31763707    -0.09810
C1110       C  0.32928896  0.87185844  0.28669804     0.29060
F1111       F  0.31244334  0.88107768  0.26720877    -0.20340
H1112       H  0.34662846  0.85068813  0.25243983     0.17430
H1113       H  0.34473298  0.87022721  0.36093962     0.17440
F1114       F  0.37743799  0.83790908  0.34632927    -0.20320
C1115       C  0.37826865  0.73339547  0.37409811    -0.21760
C1116       C  0.39608868  0.74317054  0.35476018    -0.09800
C1117       C  0.41776496  0.75275637  0.36700133     0.29060
C1118       C  0.42064244  0.75412553  0.39826447    -0.21760
C1119       C  0.40233138  0.74522640  0.41761233    -0.09810
C1120       C  0.38145716  0.73407501  0.40525677     0.29060
F1121       F  0.36314024  0.72580469  0.42326859    -0.20340
H1122       H  0.36140139  0.72605200  0.36504140     0.17430
H1123       H  0.43674913  0.76295337  0.40738793     0.17440
F1124       F  0.43518866  0.76262031  0.34885453    -0.20320
C1125       C  0.37226318  0.74516378  0.15622136    -0.21760
C1126       C  0.39607921  0.74266758  0.16732263    -0.09800
C1127       C  0.41542629  0.73827833  0.14741884     0.29060
C1128       C  0.41096141  0.73732423  0.11640573    -0.21760
C1129       C  0.38722746  0.74130486  0.10496627    -0.09810
C1130       C  0.36777347  0.74465750  0.12537630     0.29060
F1131       F  0.34454991  0.74867785  0.11565538    -0.20340
H1132       H  0.35725766  0.74893383  0.17144795     0.17430
H1133       H  0.42627583  0.73475781  0.10130203     0.17440
F1134       F  0.43863771  0.73583090  0.15788323    -0.20320
C1135       C  0.47782668  0.79671092  0.50943448    -0.21760
C1136       C  0.46524991  0.77540642  0.51843657    -0.09800
C1137       C  0.47885063  0.75474195  0.02767492     0.29060
C1138       C  0.50425786  0.75464806  0.02514657    -0.21760
C1139       C  0.51671250  0.77516921  0.51378401    -0.09810
C1140       C  0.50343178  0.79665536  0.50714611     0.29060
F1141       F  0.51491145  0.81682337  0.49601477    -0.20340
H1142       H  0.46779230  0.81283698  0.50219795     0.17430
H1143       H  0.51418438  0.73807046  0.03095334     0.17440
F1144       F  0.46754235  0.73412009  0.03780683    -0.20320
C1145       C  0.30600790  0.81668084  0.46029280    -0.21760
C1146       C  0.32898493  0.80884195  0.44989193    -0.09800
C1147       C  0.33542319  0.81334917  0.41964255     0.29060
C1148       C  0.31998714  0.82713178  0.40116156    -0.21760
C1149       C  0.29821491  0.83684128  0.41255541    -0.09810
C1150       C  0.29068864  0.83057336  0.44172468     0.29060
F1151       F  0.26859172  0.83784086  0.45220910    -0.20340
H1152       H  0.30026798  0.81291423  0.48317511     0.17430
H1153       H  0.32568167  0.83134004  0.37839652     0.17440
F1154       F  0.35702260  0.80541493  0.40818243    -0.20320
C1155       C  0.34443734  0.86244073  0.09442523    -0.21760
C1156       C  0.32810543  0.87541427  0.07575303    -0.09800
C1157       C  0.33107689  0.87382940  0.04437266     0.29060
C1158       C  0.34845741  0.85780665  0.03212222    -0.21760
C1159       C  0.36254601  0.84248970  0.05090636    -0.09810
C1160       C  0.36115260  0.84572508  0.08221263     0.29060
F1161       F  0.37429314  0.83108805  0.10104052    -0.20340
H1162       H  0.34240704  0.86309570  0.11858774     0.17430
H1163       H  0.34885846  0.85534951  0.00795296     0.17440
F1164       F  0.31568849  0.88607764  0.02557888    -0.20320
C1165       C  0.82509360  0.34288255  0.29078462    -0.21760
C1166       C  0.79983391  0.34170767  0.29437676    -0.09800
C1167       C  0.78903583  0.32215702  0.31009451     0.29060
C1168       C  0.80391134  0.30460792  0.32403146    -0.21760
C1169       C  0.82942332  0.30612935  0.32106944    -0.09810
C1170       C  0.83987703  0.32513207  0.30369728     0.29060
F1171       F  0.86449326  0.32768419  0.30095373    -0.20340
H1172       H  0.83336496  0.35757287  0.27775673     0.17430
H1173       H  0.79567211  0.29022812  0.33754610     0.17440
F1174       F  0.76433483  0.32037364  0.31231080    -0.20320
C1175       C  0.84339339  0.37989615  0.18714215    -0.21760
C1176       C  0.82101075  0.36942493  0.19652508    -0.09800
C1177       C  0.81893861  0.34381768  0.19705123     0.29060
C1178       C  0.83849149  0.32913506  0.18959615    -0.21760
C1179       C  0.86046466  0.33891858  0.17842888    -0.09810
C1180       C  0.86279164  0.36468377  0.17698897     0.29060
F1181       F  0.88364562  0.37500542  0.16633317    -0.20340
H1182       H  0.84558276  0.39962295  0.18693682     0.17430
H1183       H  0.83554981  0.30959328  0.19134339     0.17440
F1184       F  0.79790946  0.33245089  0.20527175    -0.20320
C1185       C  0.72075031  0.40890606  0.35591466    -0.21760
C1186       C  0.73768680  0.42231371  0.33871623    -0.09800
C1187       C  0.75436096  0.43769706  0.35398630     0.29060
C1188       C  0.75517294  0.43820129  0.38546878    -0.21760
C1189       C  0.73921647  0.42375979  0.40274948    -0.09810
C1190       C  0.72142748  0.40958420  0.38755643     0.29060
F1191       F  0.70563143  0.39512430  0.40315539    -0.20340
H1192       H  0.70782958  0.39685044  0.34493540     0.17430
H1193       H  0.76880478  0.44951226  0.39635160     0.17440
F1194       F  0.77052374  0.45183889  0.33850410    -0.20320
C1195       C  0.73299032  0.37610691  0.10340103    -0.21760
C1196       C  0.72249549  0.39545574  0.08711718    -0.09800
C1197       C  0.71258625  0.41543318  0.10315795     0.29060
C1198       C  0.71322642  0.41561797  0.13498126    -0.21760
C1199       C  0.72391146  0.39600622  0.15105216    -0.09810
C1200       C  0.73402742  0.37638298  0.13450099     0.29060
F1201       F  0.74600252  0.35748898  0.14808984    -0.20340
H1202       H  0.74146137  0.36079808  0.09198994     0.17430
H1203       H  0.70552953  0.43102876  0.14695643     0.17440
F1204       F  0.70237083  0.43465692  0.08822920    -0.20320
C1205       C  0.82035120  0.34474885  0.03801360    -0.21760
C1206       C  0.81542978  0.36758801  0.05124526    -0.09800
C1207       C  0.81924523  0.36985768  0.08243493     0.29060
C1208       C  0.82916820  0.35019658  0.09914525    -0.21760
C1209       C  0.83506830  0.32795386  0.08498945    -0.09810
C1210       C  0.83073443  0.32554335  0.05420977     0.29060
F1211       F  0.83599836  0.30425173  0.03989180    -0.20340
H1212       H  0.81468136  0.34083333  0.01536063     0.17430
H1213       H  0.83270633  0.35250474  0.12292612     0.17440
F1214       F  0.81239905  0.39061218  0.09685193    -0.20320
C1215       C  0.85622501  0.34135942  0.44612056    -0.21760
C1216       C  0.85408567  0.33399648  0.41612361    -0.09800
C1217       C  0.83228355  0.33988816  0.40069951     0.29060
C1218       C  0.81191535  0.34916022  0.41608714    -0.21760
C1219       C  0.81339131  0.35442698  0.44680004    -0.09810
C1220       C  0.83667479  0.35308760  0.46054905     0.29060
F1221       F  0.84122758  0.36474196  0.48672531    -0.20340
H1222       H  0.87304784  0.33798249  0.45836791     0.17430
H1223       H  0.79503037  0.35244880  0.40391839     0.17440
F1224       F  0.83022667  0.33588630  0.37094350    -0.20320
C1225       C  0.66462088  0.66266191  0.25811533    -0.21760
C1226       C  0.68951535  0.66844875  0.25424976    -0.09800
C1227       C  0.69599622  0.69297549  0.24804957     0.29060
C1228       C  0.67815949  0.71113570  0.24637673    -0.21760
C1229       C  0.65329785  0.70555761  0.25045542    -0.09810
C1230       C  0.64661167  0.68100186  0.25617431     0.29060
F1231       F  0.62280783  0.67468931  0.26008174    -0.20340
H1232       H  0.65909759  0.64398457  0.26297800     0.17430
H1233       H  0.68397153  0.72971501  0.24142855     0.17440
F1234       F  0.71963560  0.69963505  0.24338499    -0.20320
C1235       C  0.74218861  0.49108724  0.26286201    -0.21760
C1236       C  0.76014211  0.47909844  0.24571101    -0.09800
C1237       C  0.77979568  0.49285248  0.23410778     0.29060
C1238       C  0.78042841  0.51840477  0.23818907    -0.21760
C1239       C  0.76160916  0.53029254  0.25405804    -0.09810
C1240       C  0.74289856  0.51626150  0.26706610     0.29060
F1241       F  0.72492238  0.52700248  0.28345088    -0.20340
H1242       H  0.72733270  0.48093030  0.27317018     0.17430
H1243       H  0.79491644  0.52900572  0.22777523     0.17440
F1244       F  0.79771411  0.48185747  0.21794896    -0.20320
C1245       C  0.82829406  0.69980917  0.20005073    -0.21760
C1246       C  0.82484082  0.69973431  0.16871581    -0.09800
C1247       C  0.80488551  0.68689599  0.15651079     0.29060
C1248       C  0.79013336  0.67257582  0.17519052    -0.21760
C1249       C  0.79472750  0.67131279  0.20620945    -0.09810
C1250       C  0.81327311  0.68581418  0.21875567     0.29060
F1251       F  0.81834846  0.68472165  0.24863697    -0.20340
H1252       H  0.84341587  0.70975470  0.20996823     0.17430
H1253       H  0.77578859  0.66155248  0.16524935     0.17440
F1254       F  0.80074594  0.68657481  0.12639730    -0.20320
C1255       C  0.81423102  0.65911185  0.31474627    -0.21760
C1256       C  0.82185175  0.63690747  0.30224906    -0.09800
C1257       C  0.84719908  0.63203725  0.30068378     0.29060
C1258       C  0.86422596  0.64915731  0.31253190    -0.21760
C1259       C  0.85597003  0.67178267  0.32397066    -0.09810
C1260       C  0.83073989  0.67652070  0.32400336     0.29060
F1261       F  0.82152113  0.69857215  0.33189525    -0.20340
H1262       H  0.79508517  0.66409559  0.31566150     0.17430
H1263       H  0.88362450  0.64521134  0.31172671     0.17440
F1264       F  0.85537535  0.61103214  0.28798275    -0.20320
C1265       C  0.66471040  0.66025601  0.49921027    -0.21760
C1266       C  0.68932360  0.66705077  0.49538707    -0.09800
C1267       C  0.69468729  0.69064488  0.48419636     0.29060
C1268       C  0.67594740  0.70760734  0.47946217    -0.21760
C1269       C  0.65149287  0.70151808  0.48577747    -0.09810
C1270       C  0.64591454  0.67727432  0.49448146     0.29060
F1271       F  0.62254285  0.67037237  0.50039669    -0.20340
H1272       H  0.66001524  0.64205924  0.50721906     0.17430
H1273       H  0.68079515  0.72599578  0.47229786     0.17440
F1274       F  0.71808800  0.69769705  0.47869772    -0.20320
C1275       C  0.71672929  0.62048326  0.36913350    -0.21760
C1276       C  0.72438333  0.60166671  0.34988941    -0.09800
C1277       C  0.73311165  0.57955865  0.36235250     0.29060
C1278       C  0.73603840  0.57726821  0.39356004    -0.21760
C1279       C  0.72951724  0.59664090  0.41258085    -0.09810
C1280       C  0.71903890  0.61795036  0.40023722     0.29060
F1281       F  0.71316922  0.63722148  0.41804541    -0.20340
H1282       H  0.71015900  0.63773091  0.35995754     0.17430
H1283       H  0.74420067  0.56075806  0.40281696     0.17440
F1284       F  0.74085215  0.56111051  0.34434199    -0.20320
C1285       C  0.71681727  0.62208523  0.11916228    -0.21760
C1286       C  0.72635873  0.60443760  0.09958490    -0.09800
C1287       C  0.73652881  0.58276091  0.11149032     0.29060
C1288       C  0.73867755  0.57969951  0.14261261    -0.21760
C1289       C  0.73002176  0.59781198  0.16217175    -0.09810
C1290       C  0.71827462  0.61866658  0.15027963     0.29060
F1291       F  0.71010566  0.63668924  0.16866183    -0.20340
H1292       H  0.70907733  0.63895214  0.11032661     0.17430
H1293       H  0.74788720  0.56359378  0.15145290     0.17440
F1294       F  0.74628090  0.56555145  0.09309097    -0.20320
C1295       C  0.74040613  0.51884932  0.52195032    -0.21760
C1296       C  0.76134919  0.53173908  0.51256301    -0.09800
C1297       C  0.78274016  0.51848005  0.00585194     0.29060
C1298       C  0.78232747  0.49274220  0.00608423    -0.21760
C1299       C  0.76061285  0.48002940  0.01284004    -0.09810
C1300       C  0.73995667  0.49332494  0.52201159     0.29060
F1301       F  0.71891828  0.48166082  0.52976953    -0.20340
H1302       H  0.72384342  0.52857412  0.52796423     0.17430
H1303       H  0.79845657  0.48281922  0.99893379     0.17440
F1304       F  0.80338735  0.53022397  0.99686359    -0.20320
C1305       C  0.81647061  0.68460888  0.46921738    -0.21760
C1306       C  0.79745442  0.67175279  0.45514484    -0.09800
C1307       C  0.79318539  0.67525251  0.42432618     0.29060
C1308       C  0.80861930  0.69047248  0.40754225    -0.21760
C1309       C  0.82895715  0.70174101  0.42106762    -0.09810
C1310       C  0.83235544  0.69922398  0.45233252     0.29060
F1311       F  0.85150666  0.71010082  0.46642781    -0.20340
H1312       H  0.81990022  0.68221094  0.49306768     0.17430
H1313       H  0.80539459  0.69226957  0.38365593     0.17440
F1314       F  0.77444905  0.66356480  0.41039136    -0.20320
C1315       C  0.84391110  0.64319409  0.03179879    -0.21760
C1316       C  0.82628469  0.63234048  0.05073945    -0.09800
C1317       C  0.82821017  0.63581358  0.08196451     0.29060
C1318       C  0.84609702  0.65150820  0.09358783    -0.21760
C1319       C  0.86164720  0.66476894  0.07423877    -0.09810
C1320       C  0.86108210  0.65975125  0.04331466     0.29060
F1321       F  0.87572804  0.67234409  0.02402015    -0.20340
H1322       H  0.84269125  0.64103587  0.00763325     0.17430
H1323       H  0.84592503  0.65538154  0.11747224     0.17440
F1324       F  0.81149004  0.62578435  0.10096667    -0.20320
C1325       C  0.18106768  0.69077381  0.28571351    -0.21760
C1326       C  0.19317738  0.67040526  0.29817761    -0.09800
C1327       C  0.19273133  0.66666680  0.32956890     0.29060
C1328       C  0.17836107  0.68169820  0.34762983    -0.21760
C1329       C  0.16412787  0.70027964  0.33453743    -0.09810
C1330       C  0.16642124  0.70551780  0.30372141     0.29060
F1331       F  0.15335722  0.72397015  0.29078204    -0.20340
H1332       H  0.18139231  0.69420704  0.26168628     0.17430
H1333       H  0.17680553  0.67752837  0.37142697     0.17440
F1334       F  0.20495206  0.64767043  0.34258462    -0.20320
C1335       C  0.15181965  0.63446158  0.16997995    -0.21760
C1336       C  0.15638239  0.63462902  0.20105941    -0.09800
C1337       C  0.14169846  0.64954617  0.21949163     0.29060
C1338       C  0.12462136  0.66572428  0.20666258    -0.21760
C1339       C  0.12132388  0.66691377  0.17532760    -0.09810
C1340       C  0.13411290  0.65004728  0.15723203     0.29060
F1341       F  0.13169733  0.65061538  0.12684191    -0.20340
H1342       H  0.16308070  0.62339103  0.15532255     0.17430
H1343       H  0.11529247  0.67865927  0.22107953     0.17440
F1344       F  0.14591503  0.65072939  0.24955221    -0.20320
C1345       C  0.31982348  0.66109785  0.24601681    -0.21760
C1346       C  0.29482814  0.66687860  0.24888939    -0.09800
C1347       C  0.28833805  0.69063844  0.25834955     0.29060
C1348       C  0.30623476  0.70820747  0.26372845    -0.21760
C1349       C  0.33115594  0.70279810  0.26012629    -0.09810
C1350       C  0.33789331  0.67887614  0.25158171     0.29060
F1351       F  0.36177206  0.67286124  0.24769398    -0.20340
H1352       H  0.32537173  0.64297244  0.23890343     0.17430
H1353       H  0.30041667  0.72629945  0.27067525     0.17440
F1354       F  0.26459844  0.69714571  0.26247987    -0.20320
C1355       C  0.19230307  0.67156504  0.07448365    -0.21760
C1356       C  0.19022262  0.67259902  0.04302828    -0.09800
C1357       C  0.17404873  0.68954882  0.02969616     0.29060
C1358       C  0.15842218  0.70329322  0.04772398    -0.21760
C1359       C  0.15914715  0.70074095  0.07913553    -0.09810
C1360       C  0.17703305  0.68567228  0.09249930     0.29060
F1361       F  0.17835029  0.68286855  0.12283330    -0.20340
H1362       H  0.20484405  0.65879983  0.08516882     0.17430
H1363       H  0.14496329  0.71510148  0.03708556     0.17440
F1364       F  0.17178652  0.69133772  0.99934333    -0.20320
C1365       C  0.13985745  0.64594162  0.47072438    -0.21760
C1366       C  0.15464582  0.63147563  0.45196910    -0.09800
C1367       C  0.15049604  0.63213593  0.42078047     0.29060
C1368       C  0.13353345  0.64865458  0.40850603    -0.21760
C1369       C  0.12111945  0.66541487  0.42699862    -0.09810
C1370       C  0.12355276  0.66311829  0.45838995     0.29060
F1371       F  0.11187242  0.67891363  0.47699597    -0.20340
H1372       H  0.14290285  0.64598373  0.49481712     0.17430
H1373       H  0.13220959  0.65015590  0.38424139     0.17440
F1374       F  0.16440145  0.61842130  0.40199857    -0.20320
C1375       C  0.28546279  0.69194532  0.99734744    -0.21760
C1376       C  0.29268873  0.66761335  0.49211136    -0.09800
C1377       C  0.31784357  0.66196067  0.49220583     0.29060
C1378       C  0.33519453  0.68042252  0.49752898    -0.21760
C1379       C  0.32778265  0.70475706  0.50275029    -0.09810
C1380       C  0.30261632  0.71024780  0.00258494     0.29060
F1381       F  0.29432138  0.73327639  0.00798152    -0.20340
H1382       H  0.26629084  0.69697596  0.99764792     0.17430
H1383       H  0.35443978  0.67568373  0.49746647     0.17440
F1384       F  0.32571746  0.63876011  0.48705341    -0.20320
C1385       C  0.26861279  0.61585189  0.37879641    -0.21760
C1386       C  0.25582335  0.59978224  0.39783643    -0.09800
C1387       C  0.24350416  0.57960163  0.38563446     0.29060
C1388       C  0.24237000  0.57674391  0.35448066    -0.21760
C1389       C  0.25402841  0.59359666  0.33522967    -0.09810
C1390       C  0.26810649  0.61258740  0.34766072     0.29060
F1391       F  0.27941575  0.62932819  0.32972129    -0.20340
H1392       H  0.27806843  0.63156936  0.38800547     0.17430
H1393       H  0.23131089  0.56209195  0.34535016     0.17440
F1394       F  0.23063302  0.56407725  0.40362819    -0.20320
C1395       C  0.26457874  0.61976800  0.09696339    -0.21760
C1396       C  0.25590723  0.59759426  0.08533475    -0.09800
C1397       C  0.25012595  0.57821612  0.10502578     0.29060
C1398       C  0.25175472  0.58151709  0.13611503    -0.21760
C1399       C  0.25835880  0.60442564  0.14782036    -0.09810
C1400       C  0.26548882  0.62334356  0.12801933     0.29060
F1401       F  0.27218389  0.64563849  0.13866045    -0.20340
H1402       H  0.26880413  0.63495979  0.08201203     0.17430
H1403       H  0.24608264  0.56677319  0.15099751     0.17440
F1404       F  0.24174750  0.55656947  0.09417984    -0.20320
C1405       C  0.14913088  0.33098704  0.18210991    -0.21760
C1406       C  0.15707792  0.30750862  0.17447910    -0.09800
C1407       C  0.18030647  0.29931694  0.18352302     0.29060
C1408       C  0.19549461  0.31506286  0.20001826    -0.21760
C1409       C  0.18804155  0.33934572  0.20509447    -0.09810
C1410       C  0.16507562  0.34734038  0.19518749     0.29060
F1411       F  0.15813502  0.37114654  0.19775188    -0.20340
H1412       H  0.13114031  0.33742554  0.17540319     0.17430
H1413       H  0.21318805  0.30872223  0.20782918     0.17440
F1414       F  0.18792956  0.27628973  0.17694057    -0.20320
C1415       C  0.12257121  0.34953033  0.29332165    -0.21760
C1416       C  0.12205915  0.34521126  0.32443422    -0.09800
C1417       C  0.13767728  0.35914276  0.34293083     0.29060
C1418       C  0.15559247  0.37446134  0.33012369    -0.21760
C1419       C  0.15751146  0.37715113  0.29872987    -0.09810
C1420       C  0.13960639  0.36582098  0.28066909     0.29060
F1421       F  0.14014557  0.36827236  0.25042187    -0.20340
H1422       H  0.11083997  0.33902519  0.27856643     0.17430
H1423       H  0.16901268  0.38293271  0.34468443     0.17440
F1424       F  0.13762689  0.35575571  0.37319802    -0.20320
C1425       C  0.22656182  0.49299439  0.27496134    -0.21760
C1426       C  0.22009628  0.47897731  0.24996941    -0.09800
C1427       C  0.21285359  0.49084123  0.22317107     0.29060
C1428       C  0.21283029  0.51654347  0.22125644    -0.21760
C1429       C  0.22015078  0.53050430  0.24602635    -0.09810
C1430       C  0.22646704  0.51857579  0.27309493     0.29060
F1431       F  0.23318355  0.53174954  0.29753748    -0.20340
H1432       H  0.23236878  0.48409443  0.29563016     0.17430
H1433       H  0.20819013  0.52547304  0.20016903     0.17440
F1434       F  0.20722742  0.47755123  0.19840698    -0.20320
C1435       C  0.19257943  0.33800021  0.42502257    -0.21760
C1436       C  0.18845342  0.33867786  0.45612824    -0.09800
C1437       C  0.17064383  0.32334031  0.46901259     0.29060
C1438       C  0.15573638  0.30915168  0.45056640    -0.21760
C1439       C  0.15868272  0.30976690  0.41917299    -0.09810
C1440       C  0.17806719  0.32337125  0.40661867     0.29060
F1441       F  0.18179386  0.32415371  0.37643478    -0.20340
H1442       H  0.20639299  0.34962674  0.41483198     0.17430
H1443       H  0.14110388  0.29857941  0.46074109     0.17440
F1444       F  0.16617693  0.32370371  0.49905046    -0.20320
C1445       C  0.12285031  0.35090869  0.04938294    -0.21760
C1446       C  0.12610452  0.34306775  0.07926915    -0.09800
C1447       C  0.14436841  0.35429466  0.09659416     0.29060
C1448       C  0.16006043  0.37164359  0.08404888    -0.21760
C1449       C  0.15840577  0.37790191  0.05352534    -0.09810
C1450       C  0.13862055  0.36854018  0.03664988     0.29060
F1451       F  0.13612305  0.37426293  0.00705422    -0.20340
H1452       H  0.10918589  0.34223341  0.03537576     0.17430
H1453       H  0.17519930  0.37822570  0.09754181     0.17440
F1454       F  0.14960898  0.34586254  0.12436865    -0.20320
C1455       C  0.27396347  0.40272026  0.36704285    -0.21760
C1456       C  0.25476560  0.40981437  0.34800595    -0.09800
C1457       C  0.23386868  0.42086641  0.35998488     0.29060
C1458       C  0.23165531  0.42376845  0.39091823    -0.21760
C1459       C  0.25020968  0.41555289  0.41051435    -0.09810
C1460       C  0.27188637  0.40581686  0.39820588     0.29060
F1461       F  0.29048272  0.39815333  0.41620082    -0.20340
H1462       H  0.29009737  0.39399152  0.35787291     0.17430
H1463       H  0.21479178  0.43141662  0.39955956     0.17440
F1464       F  0.21483369  0.42723915  0.34186810    -0.20320
C1465       C  0.24955946  0.43006238  0.11018082    -0.21760
C1466       C  0.25999229  0.40872630  0.09828174    -0.09800
C1467       C  0.27021408  0.39116933  0.11789516     0.29060
C1468       C  0.26854658  0.39422135  0.14901130    -0.21760
C1469       C  0.25602048  0.41440504  0.16089326    -0.09810
C1470       C  0.24723220  0.43275280  0.14131210     0.29060
F1471       F  0.23539642  0.45267133  0.15223852    -0.20340
H1472       H  0.24141958  0.44367555  0.09538773     0.17430
H1473       H  0.27534808  0.37986133  0.16376791     0.17440
F1474       F  0.28057217  0.37043085  0.10694639    -0.20320
C1475       C  0.20770375  0.49297856  0.02175992    -0.21760
C1476       C  0.21976757  0.47958355  0.49942404    -0.09800
C1477       C  0.23021354  0.49197760  0.47475272     0.29060
C1478       C  0.22991495  0.51749975  0.47336281    -0.21760
C1479       C  0.21886881  0.53099325  0.49627065    -0.09810
C1480       C  0.20735046  0.51867441  0.02029934     0.29060
F1481       F  0.19741484  0.53150468  0.04333555    -0.20340
H1482       H  0.19969009  0.48364242  0.04094382     0.17430
H1483       H  0.23888353  0.52680057  0.45479446     0.17440
F1484       F  0.24105863  0.47931779  0.45218137    -0.20320
C1485       C  0.67900047  0.18877518  0.20821370    -0.21760
C1486       C  0.65716299  0.19803951  0.19594024    -0.09800
C1487       C  0.65344903  0.19694762  0.16460473     0.29060
C1488       C  0.67060172  0.18517784  0.14637109    -0.21760
C1489       C  0.69117530  0.17391684  0.15927046    -0.09810
C1490       C  0.69576190  0.17659779  0.19012017     0.29060
F1491       F  0.71579874  0.16618940  0.20301741    -0.20340
H1492       H  0.68247923  0.18963450  0.23217962     0.17430
H1493       H  0.66689869  0.18328698  0.12258342     0.17440
F1494       F  0.63291549  0.20636262  0.15176012    -0.20320
C1495       C  0.63600187  0.14077018  0.34205544    -0.21760
C1496       C  0.65239826  0.12727358  0.32424005    -0.09800
C1497       C  0.65089912  0.12963485  0.29276546     0.29060
C1498       C  0.63504006  0.14686255  0.27969229    -0.21760
C1499       C  0.62112809  0.16266225  0.29777088    -0.09810
C1500       C  0.62097982  0.15884684  0.32904775     0.29060
F1501       F  0.60773930  0.17378642  0.34711063    -0.20340
H1502       H  0.63688050  0.13937375  0.36633473     0.17430
H1503       H  0.63568671  0.14968084  0.25554585     0.17440
F1504       F  0.66654740  0.11707930  0.27483724    -0.20320
C1505       C  0.67743950  0.29758736  0.24099709    -0.21760
C1506       C  0.65318230  0.30254210  0.24910365    -0.09800
C1507       C  0.64673941  0.32676399  0.25695008     0.29060
C1508       C  0.66450205  0.34536418  0.25715564    -0.21760
C1509       C  0.68892153  0.34006913  0.24991702    -0.09810
C1510       C  0.69507373  0.31598635  0.24130970     0.29060
F1511       F  0.71811564  0.31015437  0.23246835    -0.20340
H1512       H  0.68292034  0.27926345  0.23456091     0.17430
H1513       H  0.65926207  0.36378897  0.26344769     0.17440
F1514       F  0.62354076  0.33237210  0.26533191    -0.20320
C1515       C  0.63776041  0.16342821  0.45584619    -0.21760
C1516       C  0.62673476  0.18291989  0.44019505    -0.09800
C1517       C  0.63598720  0.18957766  0.41171092     0.29060
C1518       C  0.65692760  0.17831205  0.40037044    -0.21760
C1519       C  0.66892938  0.15980215  0.41679084    -0.09810
C1520       C  0.65871930  0.15202499  0.44444294     0.29060
F1521       F  0.66932887  0.13392263  0.46102298    -0.20340
H1522       H  0.63141241  0.15835707  0.47811403     0.17430
H1523       H  0.66368946  0.18409772  0.37855514     0.17440
F1524       F  0.62570260  0.20822848  0.39571192    -0.20320
C1525       C  0.63903245  0.17125377  0.06629825    -0.21760
C1526       C  0.64785447  0.18402292  0.04080997    -0.09800
C1527       C  0.66804581  0.17434922  0.02537455     0.29060
C1528       C  0.67936729  0.15295995  0.03559482    -0.21760
C1529       C  0.67178352  0.14114609  0.06231970    -0.09810
C1530       C  0.65092133  0.15013168  0.07711347     0.29060
F1531       F  0.64283349  0.13946161  0.10291697    -0.20340
H1532       H  0.62311169  0.17786914  0.07826278     0.17430
H1533       H  0.69534939  0.14662178  0.02351221     0.17440
F1534       F  0.67711340  0.18555980  0.00041459    -0.20320
C1535       C  0.66622602  0.34986919  0.99540392    -0.21760
C1536       C  0.69058613  0.34286915  0.48983801    -0.09800
C1537       C  0.69680566  0.31785510  0.49208110     0.29060
C1538       C  0.67912477  0.30048659  0.49980946    -0.21760
C1539       C  0.65474639  0.30742275  0.50514758    -0.09810
C1540       C  0.64845191  0.33240298  0.00287512     0.29060
F1541       F  0.62514216  0.34001388  0.00770819    -0.20340
H1542       H  0.66094803  0.36900626  0.99446347     0.17430
H1543       H  0.68450454  0.28137883  0.50079115     0.17440
F1544       F  0.72008718  0.31005734  0.48750342    -0.20320
C1545       C  0.57652029  0.27368928  0.36141650    -0.21760
C1546       C  0.59863987  0.27090394  0.34560140    -0.09800
C1547       C  0.62082187  0.27367010  0.36147721     0.29060
C1548       C  0.62086336  0.27723450  0.39236029    -0.21760
C1549       C  0.59897498  0.27780187  0.40880561    -0.09810
C1550       C  0.57662976  0.27705393  0.39287923     0.29060
F1551       F  0.55499818  0.27811934  0.40775467    -0.20340
H1552       H  0.55921655  0.27189844  0.34976393     0.17430
H1553       H  0.63842112  0.27813305  0.40363883     0.17440
F1554       F  0.64282685  0.27185339  0.34747115    -0.20320
C1555       C  0.58066006  0.27493937  0.10991361    -0.21760
C1556       C  0.57636578  0.25317845  0.09364122    -0.09800
C1557       C  0.57219186  0.23137852  0.10990716     0.29060
C1558       C  0.57262185  0.23127451  0.14112179    -0.21760
C1559       C  0.57741250  0.25269043  0.15766404    -0.09810
C1560       C  0.58117264  0.27475125  0.14169686     0.29060
F1561       F  0.58555732  0.29593201  0.15659970    -0.20340
H1562       H  0.58402593  0.29200661  0.09804669     0.17430
H1563       H  0.56983808  0.21379535  0.15230813     0.17440
F1564       F  0.56867523  0.20962491  0.09584871    -0.20320
C1565       C  0.31955428  0.15861258  0.31709657    -0.21760
C1566       C  0.29663137  0.16703524  0.32624059    -0.09800
C1567       C  0.28878011  0.19071832  0.31827393     0.29060
C1568       C  0.30399856  0.20570829  0.30063820    -0.21760
C1569       C  0.32735510  0.19733380  0.29258411    -0.09810
C1570       C  0.33515401  0.17388388  0.30136023     0.29060
F1571       F  0.35796960  0.16570186  0.29467889    -0.20340
H1572       H  0.32580098  0.14037969  0.32326828     0.17430
H1573       H  0.29793605  0.22385966  0.29397336     0.17440
F1574       F  0.26651357  0.19901440  0.32705830    -0.20320
C1575       C  0.34363306  0.14578356  0.15618001    -0.21760
C1576       C  0.32807075  0.13233372  0.17533185    -0.09800
C1577       C  0.33124970  0.13427255  0.20655971     0.29060
C1578       C  0.34847950  0.15066502  0.21829807    -0.21760
C1579       C  0.36201119  0.16623174  0.19920862    -0.09810
C1580       C  0.36012831  0.16294835  0.16793404     0.29060
F1581       F  0.37270237  0.17773436  0.14873925    -0.20340
H1582       H  0.34115514  0.14497978  0.13201092     0.17430
H1583       H  0.34924693  0.15302740  0.24236773     0.17440
F1584       F  0.31630118  0.12185364  0.22567925    -0.20320
C1585       C  0.30755488  0.30231355  0.23351835    -0.21760
C1586       C  0.33216781  0.30657312  0.24080013    -0.09800
C1587       C  0.33886761  0.32978371  0.25188986     0.29060
C1588       C  0.32094806  0.34795171  0.25641929    -0.21760
C1589       C  0.29617626  0.34321883  0.24996532    -0.09810
C1590       C  0.28983888  0.32027104  0.23784049     0.29060
F1591       F  0.26641029  0.31501751  0.22998587    -0.20340
H1592       H  0.30185917  0.28484423  0.22439843     0.17430
H1593       H  0.32633965  0.36545288  0.26569603     0.17440
F1594       F  0.36244594  0.33461961  0.25936532    -0.20320
C1595       C  0.48040522  0.24383087  0.22608254    -0.21760
C1596       C  0.46615462  0.22710590  0.24227659    -0.09800
C1597       C  0.47781315  0.20937527  0.26057761     0.29060
C1598       C  0.50345903  0.20945389  0.26369487    -0.21760
C1599       C  0.51750911  0.22731608  0.24876140    -0.09810
C1600       C  0.50570219  0.24388123  0.22900144     0.29060
F1601       F  0.51862988  0.26040852  0.21245369    -0.20340
H1602       H  0.47181064  0.25743800  0.21166490     0.17430
H1603       H  0.51217638  0.19633448  0.27863520     0.17440
F1604       F  0.46438909  0.19318770  0.27697148    -0.20320
C1605       C  0.32093298  0.15423891  0.06101232    -0.21760
C1606       C  0.29981395  0.16356018  0.07444946    -0.09800
C1607       C  0.29310753  0.18819037  0.06971800     0.29060
C1608       C  0.30737645  0.20311526  0.05088338    -0.21760
C1609       C  0.32878854  0.19364252  0.03809639    -0.09810
C1610       C  0.33564436  0.16929460  0.04366376     0.29060
F1611       F  0.35704376  0.16025590  0.03301842    -0.20340
H1612       H  0.32666534  0.13547614  0.06509480     0.17430
H1613       H  0.30227687  0.22209004  0.04713115     0.17440
F1614       F  0.27294945  0.19764768  0.08315232    -0.20320
C1615       C  0.33951232  0.15109361  0.39832284    -0.21760
C1616       C  0.32884131  0.13356763  0.41757289    -0.09800
C1617       C  0.33715864  0.13204557  0.44740053     0.29060
C1618       C  0.35456992  0.14887053  0.45810915    -0.21760
C1619       C  0.36283558  0.16840312  0.43983034    -0.09810
C1620       C  0.35594489  0.16861448  0.40932514     0.29060
F1621       F  0.36341010  0.18696829  0.39069447    -0.20340
H1622       H  0.33318610  0.15289732  0.37551630     0.17430
H1623       H  0.35970693  0.14798237  0.48141205     0.17440
F1624       F  0.32730682  0.11537114  0.46666844    -0.20320
C1625       C  0.28773951  0.31778373  0.00594837    -0.21760
C1626       C  0.29407184  0.34264140  0.50289278    -0.09800
C1627       C  0.31854322  0.34874065  0.49634477     0.29060
C1628       C  0.33601620  0.33014688  0.49236787    -0.21760
C1629       C  0.32939218  0.30526267  0.49490267    -0.09810
C1630       C  0.30502386  0.29936543  0.00214458     0.29060
F1631       F  0.29765890  0.27573683  0.00560364    -0.20340
H1632       H  0.26918714  0.31239391  0.01140026     0.17430
H1633       H  0.35464280  0.33522308  0.48685509     0.17440
F1634       F  0.32553037  0.37250456  0.49328438    -0.20320
C1635       C  0.41618402  0.24958086  0.35399596    -0.21760
C1636       C  0.40237988  0.26384436  0.33373689    -0.09800
C1637       C  0.38605026  0.28150530  0.34509597     0.29060
C1638       C  0.38210793  0.28317742  0.37613351    -0.21760
C1639       C  0.39503471  0.26795034  0.39605741    -0.09810
C1640       C  0.41269121  0.25171754  0.38491987     0.29060
F1641       F  0.42494216  0.23634909  0.40382440    -0.20340
H1642       H  0.42884784  0.23586135  0.34582904     0.17430
H1643       H  0.36834686  0.29566890  0.38455960     0.17440
F1644       F  0.37248723  0.29572107  0.32625118    -0.20320
C1645       C  0.38666644  0.28121038  0.12694357    -0.21760
C1646       C  0.39644515  0.26308960  0.14590698    -0.09800
C1647       C  0.40972872  0.24363029  0.13354946     0.29060
C1648       C  0.41222763  0.24170667  0.10240627    -0.21760
C1649       C  0.40159246  0.25922730  0.08301847    -0.09810
C1650       C  0.38948345  0.27955784  0.09569360     0.29060
F1651       F  0.37920178  0.29712477  0.07798866    -0.20340
H1652       H  0.37617625  0.29619060  0.13630362     0.17430
H1653       H  0.42167311  0.22589214  0.09345012     0.17440
F1654       F  0.41874416  0.22552838  0.15153987    -0.20320
C1655       C  0.47955699  0.22071776  0.46847521    -0.21760
C1656       C  0.46583836  0.23280282  0.49060632    -0.09800
C1657       C  0.47799641  0.24508225  0.01390896     0.29060
C1658       C  0.50330430  0.24660988  0.01411179    -0.21760
C1659       C  0.51718096  0.23565519  0.49140768    -0.09810
C1660       C  0.50527422  0.22205087  0.46890657     0.29060
F1661       F  0.51834210  0.21115781  0.44675739    -0.20340
H1662       H  0.47040094  0.21116605  0.45039060     0.17430
H1663       H  0.51214308  0.25647639  0.03221067     0.17440
F1664       F  0.46528500  0.25582050  0.03654244    -0.20320
O1665       O  0.36684094  0.21117474  0.53039903    -0.82250
C1666       C  0.38798705  0.26601637  0.92772061     0.97100
O1667       O  0.36646875  0.25909572  0.93418895    -0.71370
O1668       O  0.36700633  0.21154160  0.94316873    -0.74960
Al1669     Al  0.35537282  0.23807463  0.96651549     1.48980
C1670       C  0.37267640  0.19100149  0.95422940     0.92360
O1671       O  0.42543404  0.21646480  0.48581668    -0.81180
O1672       O  0.39336982  0.27080495  0.53197545    -0.74740
Al1673     Al  0.39500758  0.21491160  0.50718720     1.90120
O1674       O  0.42997453  0.25582715  0.49435419    -0.73810
O1675       O  0.36973200  0.29021639  0.48532402    -0.73660
O1676       O  0.40393194  0.26923531  0.94784924    -0.79320
O1677       O  0.33998238  0.26374128  0.98715115    -0.77520
O1678       O  0.38271480  0.24064472  0.48763015    -1.13650
O1679       O  0.33931075  0.21652421  0.49472431    -0.72850
C1680       C  0.34542579  0.20877728  0.52054690     0.97870
C1681       C  0.43907288  0.23497369  0.98916919     0.94260
Al1682     Al  0.39806017  0.26932720  0.48962102     1.55560
O1683       O  0.38338931  0.18997651  0.97947125    -0.77470
C1684       C  0.34735426  0.28546579  0.98907867     0.98430
C1685       C  0.40104229  0.25456564  0.55015892     0.93310
O1686       O  0.40769338  0.23371572  0.54053912    -0.82790
O1687       O  0.36525063  0.21556712  0.78581667    -0.82250
C1688       C  0.38993320  0.26211662  0.67784509     0.97100
O1689       O  0.36837859  0.25594972  0.68489403    -0.71370
O1690       O  0.36815603  0.20909156  0.69829961    -0.74960
Al1691     Al  0.35658094  0.23727226  0.71867750     1.48980
C1692       C  0.37229146  0.18916472  0.71183788     0.92360
O1693       O  0.42474698  0.21327396  0.74343704    -0.81180
O1694       O  0.39594141  0.27270395  0.78167499    -0.74740
Al1695     Al  0.39408085  0.21546655  0.76328039     1.90120
O1696       O  0.43179743  0.25298940  0.74504395    -0.73810
O1697       O  0.37255313  0.28997494  0.73410308    -0.73660
O1698       O  0.40606330  0.26566567  0.69766122    -0.79320
O1699       O  0.34168070  0.26461581  0.73636808    -0.77520
O1700       O  0.38369562  0.24026090  0.74031282    -1.13650
O1701       O  0.33927841  0.21782252  0.74807648    -0.72850
C1702       C  0.34430046  0.21209972  0.77499594     0.97870
C1703       C  0.43950023  0.23110860  0.74315837     0.94260
Al1704     Al  0.40035161  0.26820251  0.73960729     1.55560
O1705       O  0.38153956  0.18934912  0.73796621    -0.77470
C1706       C  0.34986496  0.28614049  0.73716424     0.98430
C1707       C  0.40232344  0.25733262  0.80156034     0.93310
O1708       O  0.40774352  0.23558885  0.79436394    -0.82790
O1709       O  0.57195810  0.23263157  0.54674551    -0.82250
C1710       C  0.60065243  0.27484926  0.94205703     0.97100
O1711       O  0.58202050  0.27561160  0.95906514    -0.71370
O1712       O  0.55216467  0.25911316  0.00206493    -0.74960
Al1713     Al  0.58443204  0.27276497  0.00229115     1.48980
C1714       C  0.54387674  0.23889322  0.99269905     0.92360
O1715       O  0.60054629  0.19565064  0.98083282    -0.81180
O1716       O  0.64197053  0.21696547  0.50547911    -0.74740
Al1717     Al  0.58660643  0.21690909  0.51212293     1.90120
O1718       O  0.61748305  0.22313082  0.95167442    -0.73810
O1719       O  0.64231114  0.26593830  0.00963554    -0.73660
O1720       O  0.62143611  0.26970278  0.95314277    -0.79320
O1721       O  0.61347533  0.29329764  0.50318534    -0.77520
O1722       O  0.60007895  0.24444453  0.99894900    -1.13650
O1723       O  0.58595120  0.27063326  0.54525857    -0.72850
C1724       C  0.57800368  0.25233884  0.56016779     0.97870
C1725       C  0.61268666  0.20118179  0.95735907     0.94260
Al1726     Al  0.62881972  0.24396604  0.98150880     1.55560
O1727       O  0.55815171  0.22120926  0.48772559    -0.77470
C1728       C  0.63580477  0.28810713  0.00779715     0.98430
C1729       C  0.63400139  0.20514465  0.52813507     0.93310
O1730       O  0.61289725  0.20944828  0.53797099    -0.82790
O1731       O  0.61617220  0.20845725  0.70793718    -0.82250
C1732       C  0.59951588  0.26296039  0.81364199     0.97100
O1733       O  0.61907767  0.25292576  0.80498257    -0.71370
O1734       O  0.61834039  0.20587493  0.79547104    -0.74960
Al1735     Al  0.62883236  0.23336380  0.77225540     1.48980
C1736       C  0.61198820  0.18576335  0.78416687     0.92360
O1737       O  0.55817949  0.21112586  0.75549453    -0.81180
O1738       O  0.58727165  0.26688071  0.70829325    -0.74740
Al1739     Al  0.58828859  0.21073863  0.73309643     1.90120
O1740       O  0.55325981  0.25091907  0.74997371    -0.73810
O1741       O  0.61306239  0.28596236  0.75424014    -0.73660
O1742       O  0.58171057  0.26582708  0.79553593    -0.79320
O1743       O  0.64350444  0.26023733  0.75206931    -0.77520
O1744       O  0.60067633  0.23632636  0.75284936    -1.13650
O1745       O  0.64415002  0.21331251  0.74282210    -0.72850
C1746       C  0.63817551  0.20739265  0.71639623     0.97870
C1747       C  0.54427821  0.22967048  0.75288453     0.94260
Al1748     Al  0.58497588  0.26503844  0.75210817     1.55560
O1749       O  0.60106864  0.18542020  0.75916735    -0.77470
C1750       C  0.63561247  0.28191545  0.75147248     0.98430
C1751       C  0.57948615  0.25009103  0.69102313     0.93310
O1752       O  0.57373747  0.22949463  0.70191243    -0.82790
O1753       O  0.20317285  0.37865895  0.96271367    -0.82250
C1754       C  0.25586788  0.40280735  0.56646347     0.97100
O1755       O  0.24822865  0.38157068  0.56017126    -0.71370
O1756       O  0.20107086  0.38371223  0.55053288    -0.74960
Al1757     Al  0.22733667  0.37034969  0.52850477     1.48980
C1758       C  0.18059556  0.38767818  0.53843745     0.92360
O1759       O  0.20505616  0.43876291  0.00485409    -0.81180
O1760       O  0.26119861  0.40767281  0.96185232    -0.74740
Al1761     Al  0.20499636  0.40791458  0.98483419     1.90120
O1762       O  0.24461724  0.44451944  0.99851411    -0.73810
O1763       O  0.27957269  0.38393692  0.00906301    -0.73660
O1764       O  0.25849642  0.41894315  0.54620279    -0.79320
O1765       O  0.25289128  0.35411625  0.50903240    -0.77520
O1766       O  0.23039779  0.39693830  0.00594047    -1.13650
O1767       O  0.20586938  0.35340458  0.00132840    -0.72850
C1768       C  0.20025669  0.35767166  0.97417911     0.97870
C1769       C  0.22321779  0.45296251  0.00203509     0.94260
Al1770     Al  0.25883133  0.41261106  0.00414529     1.55560
O1771       O  0.17965982  0.39638383  0.51203654    -0.77470
C1772       C  0.27465456  0.36133586  0.00691387     0.98430
C1773       C  0.24518038  0.41482177  0.94320696     0.93310
O1774       O  0.22401926  0.42072038  0.95214896    -0.82790
O1775       O  0.20637834  0.37752509  0.71039875    -0.82250
C1776       C  0.25433216  0.40270993  0.81644766     0.97100
O1777       O  0.24778282  0.38112697  0.81010371    -0.71370
O1778       O  0.20068857  0.38165488  0.79807272    -0.74960
Al1779     Al  0.22845792  0.36936102  0.77720250     1.48980
C1780       C  0.18074519  0.38623454  0.78490933     0.92360
O1781       O  0.20602511  0.43784637  0.75117087    -0.81180
O1782       O  0.26428498  0.40731605  0.71263048    -0.74740
Al1783     Al  0.20720428  0.40682709  0.73210998     1.90120
O1784       O  0.24575361  0.44429516  0.74849492    -0.73810
O1785       O  0.28130089  0.38385726  0.76034016    -0.73660
O1786       O  0.25812974  0.41855714  0.79622916    -0.79320
O1787       O  0.25501741  0.35378184  0.75887710    -0.77520
O1788       O  0.23186115  0.39622699  0.75484111    -1.13650
O1789       O  0.20845874  0.35208305  0.74888731    -0.72850
C1790       C  0.20278425  0.35670416  0.72189464     0.97870
C1791       C  0.22405678  0.45233114  0.75053445     0.94260
Al1792     Al  0.26018847  0.41229429  0.75456215     1.55560
O1793       O  0.18100414  0.39525217  0.75852989    -0.77470
C1794       C  0.27663186  0.36134304  0.75662682     0.98430
C1795       C  0.24910265  0.41414098  0.69287269     0.93310
O1796       O  0.22737820  0.41964323  0.70002432    -0.82790
O1797       O  0.20614732  0.63294041  0.53705645    -0.82250
C1798       C  0.25204349  0.60625129  0.92940771     0.97100
O1799       O  0.24390497  0.62735275  0.93534673    -0.71370
O1800       O  0.19729418  0.62514901  0.94964580    -0.74960
Al1801     Al  0.22504283  0.63921307  0.96849184     1.48980
C1802       C  0.17787361  0.62170820  0.96430761     0.92360
O1803       O  0.20424879  0.57184311  0.49796013    -0.81180
O1804       O  0.26324529  0.60331499  0.53321487    -0.74740
Al1805     Al  0.20599355  0.60302689  0.51623766     1.90120
O1806       O  0.24419709  0.56571890  0.99818126    -0.73810
O1807       O  0.27852047  0.62635982  0.48474856    -0.73660
O1808       O  0.25593973  0.59068532  0.94992703    -0.79320
O1809       O  0.25163886  0.65604497  0.98482472    -0.77520
O1810       O  0.22977561  0.61320227  0.99182964    -1.13650
O1811       O  0.20537690  0.65679808  0.49704462    -0.72850
C1812       C  0.20179853  0.65343328  0.52489441     0.97870
C1813       C  0.22247376  0.55758812  0.99704446     0.94260
Al1814     Al  0.25828315  0.59764142  0.99150965     1.55560
O1815       O  0.17896255  0.61409867  0.99123846    -0.77470
C1816       C  0.27344244  0.64892288  0.98696346     0.98430
C1817       C  0.24866124  0.59665285  0.55362381     0.93310
O1818       O  0.22700929  0.59048035  0.54735651    -0.82790
O1819       O  0.20581427  0.63008079  0.78779065    -0.82250
C1820       C  0.25435475  0.60944389  0.67992823     0.97100
O1821       O  0.24621441  0.63027806  0.68733681    -0.71370
O1822       O  0.19926201  0.62901909  0.69988529    -0.74960
Al1823     Al  0.22710340  0.64083845  0.72095947     1.48980
C1824       C  0.17952314  0.62438365  0.71334286     0.92360
O1825       O  0.20551303  0.57153463  0.74246769    -0.81180
O1826       O  0.26319489  0.60149169  0.78375840    -0.74740
Al1827     Al  0.20643389  0.60171552  0.76403599     1.90120
O1828       O  0.24528362  0.56547021  0.74624993    -0.73810
O1829       O  0.28025741  0.62638541  0.73733819    -0.73660
O1830       O  0.25791967  0.59283042  0.69938674    -0.79320
O1831       O  0.25371517  0.65615605  0.73952244    -0.77520
O1832       O  0.23094090  0.61338119  0.74188005    -1.13650
O1833       O  0.20753576  0.65693053  0.75078193    -0.72850
C1834       C  0.20326268  0.65167838  0.77806716     0.97870
C1835       C  0.22371494  0.55718001  0.74361671     0.94260
Al1836     Al  0.25944830  0.59768415  0.74155421     1.55560
O1837       O  0.18003492  0.61448141  0.73915469    -0.77470
C1838       C  0.27539153  0.64876681  0.74164668     0.98430
C1839       C  0.24795891  0.59386330  0.80297640     0.93310
O1840       O  0.22667788  0.58752874  0.79501065    -0.82790
O1841       O  0.78011309  0.63233856  0.96120357    -0.82250
C1842       C  0.72909717  0.61020868  0.56743544     0.97100
O1843       O  0.73579567  0.63154663  0.55975295    -0.71370
O1844       O  0.78319109  0.62877499  0.54954517    -0.74960
Al1845     Al  0.75655734  0.64173823  0.52707559     1.48980
C1846       C  0.80322482  0.62339498  0.53713920     0.92360
O1847       O  0.77777746  0.57218579  0.00525236    -0.81180
O1848       O  0.72097904  0.60312735  0.96398202    -0.74740
Al1849     Al  0.77779726  0.60295457  0.98428694     1.90120
O1850       O  0.73802810  0.56703570  0.00220068    -0.73810
O1851       O  0.70430746  0.62770006  0.00973814    -0.73660
O1852       O  0.72602417  0.59373506  0.54804651    -0.79320
O1853       O  0.73077492  0.65760301  0.50635656    -0.77520
O1854       O  0.75306305  0.61455831  0.00588352    -1.13650
O1855       O  0.77813327  0.65772550  0.99931913    -0.72850
C1856       C  0.78396177  0.65319262  0.97244692     0.97870
C1857       C  0.75918804  0.55841441  0.00677081     0.94260
Al1858     Al  0.72454212  0.59905534  0.00600340     1.55560
O1859       O  0.80339687  0.61415621  0.51106140    -0.77470
C1860       C  0.70915808  0.64988979  0.00400558     0.98430
C1861       C  0.73624077  0.59618174  0.94457895     0.93310
O1862       O  0.75776686  0.59013083  0.95213572    -0.82790
O1863       O  0.77898463  0.63170096  0.71260583    -0.82250
C1864       C  0.72775249  0.60724492  0.81770790     0.97100
O1865       O  0.73480063  0.62853583  0.81058325    -0.71370
O1866       O  0.78127234  0.62352916  0.80040850    -0.74960
Al1867     Al  0.75592549  0.63909065  0.77884321     1.48980
C1868       C  0.80202798  0.62205291  0.78844691     0.92360
O1869       O  0.77763073  0.57099851  0.75394603    -0.81180
O1870       O  0.72073079  0.60337025  0.71370658    -0.74740
Al1871     Al  0.77747535  0.60216643  0.73455446     1.90120
O1872       O  0.73770335  0.56596083  0.75018394    -0.73810
O1873       O  0.70355558  0.62698072  0.76089866    -0.73660
O1874       O  0.72490698  0.59106679  0.79782332    -0.79320
O1875       O  0.73079100  0.65634860  0.75943489    -0.77520
O1876       O  0.75231671  0.61304044  0.75630346    -1.13650
O1877       O  0.77788570  0.65601373  0.75175328    -0.72850
C1878       C  0.78273574  0.65230756  0.72432996     0.97870
C1879       C  0.75905434  0.55716132  0.75327774     0.94260
Al1880     Al  0.72380131  0.59785449  0.75565432     1.55560
O1881       O  0.80368839  0.61361023  0.76196423    -0.77470
C1882       C  0.70884227  0.64953026  0.75802509     0.98430
C1883       C  0.73618091  0.59666100  0.69432659     0.93310
O1884       O  0.75748889  0.58994180  0.70208732    -0.82790
O1885       O  0.76287701  0.42814056  0.94821774    -0.82250
C1886       C  0.72473658  0.39464366  0.55379340     0.97100
O1887       O  0.72320860  0.41387764  0.53775912    -0.71370
O1888       O  0.73802116  0.44574115  0.49644869    -0.74960
Al1889     Al  0.72481777  0.41323418  0.99465900     1.48980
C1890       C  0.75830370  0.45367224  0.50607183     0.92360
O1891       O  0.80276905  0.39654432  0.51218925    -0.81180
O1892       O  0.78174453  0.35660250  0.98494605    -0.74740
Al1893     Al  0.78019166  0.41220482  0.98193232     1.90120
O1894       O  0.77598752  0.37865183  0.54128278    -0.73810
O1895       O  0.73195732  0.35565665  0.48355755    -0.73660
O1896       O  0.73002398  0.37425290  0.54162297    -0.79320
O1897       O  0.70473185  0.38398672  0.99306918    -0.77520
O1898       O  0.75335235  0.39783393  0.99573650    -1.13650
O1899       O  0.72538236  0.41328543  0.95205988    -0.72850
C1900       C  0.74257180  0.42188217  0.93606227     0.97870
C1901       C  0.79767516  0.38342419  0.53531778     0.94260
Al1902     Al  0.75482130  0.36828313  0.51138906     1.55560
O1903       O  0.77658228  0.43958644  0.00784827    -0.77470
C1904       C  0.70987407  0.36186516  0.98705901     0.98430
C1905       C  0.79241978  0.36625921  0.96226891     0.93310
O1906       O  0.78688439  0.38752654  0.95410185    -0.82790
O1907       O  0.78423891  0.38122672  0.78653319    -0.82250
C1908       C  0.72579255  0.39511942  0.68455116     0.97100
O1909       O  0.73124073  0.37464067  0.69593375    -0.71370
O1910       O  0.77884396  0.37763496  0.69981366    -0.74960
Al1911     Al  0.75400903  0.36689882  0.72653823     1.48980
C1912       C  0.79995602  0.38336436  0.70876903     0.92360
O1913       O  0.77631692  0.43856814  0.73857535    -0.81180
O1914       O  0.72327910  0.40955405  0.78938956    -0.74740
Al1915     Al  0.77885529  0.40871071  0.76129270     1.90120
O1916       O  0.73703891  0.44291178  0.74677324    -0.73810
O1917       O  0.70279528  0.38172392  0.74485019    -0.73660
O1918       O  0.72304102  0.41359923  0.70158604    -0.79320
O1919       O  0.72996592  0.35294261  0.75123302    -0.77520
O1920       O  0.75231419  0.39551805  0.74452602    -1.13650
O1921       O  0.77659014  0.35276355  0.75320450    -0.72850
C1922       C  0.78538296  0.35934955  0.77787089     0.97870
C1923       C  0.75787170  0.45222995  0.74231115     0.94260
Al1924     Al  0.72364096  0.41088054  0.74557319     1.55560
O1925       O  0.80246980  0.39605030  0.73233728    -0.77470
C1926       C  0.70798179  0.35937431  0.74952451     0.98430
C1927       C  0.74051908  0.41803440  0.80572113     0.93310
O1928       O  0.76132347  0.42252340  0.79439355    -0.82790
O1929       O  0.36848547  0.79468636  0.96295855    -0.82250
C1930       C  0.38331400  0.74469919  0.57221469     0.97100
O1931       O  0.36298831  0.75298846  0.56301771    -0.71370
O1932       O  0.36625795  0.79957081  0.55071536    -0.74960
Al1933     Al  0.35438092  0.77252552  0.52867010     1.48980
C1934       C  0.37231666  0.81940712  0.53826163     0.92360
O1935       O  0.42501939  0.79213208  0.01217573    -0.81180
O1936       O  0.39478419  0.73568759  0.96899139    -0.74740
Al1937     Al  0.39579972  0.79249946  0.98858466     1.90120
O1938       O  0.42963754  0.75214317  0.00942040    -0.73810
O1939       O  0.36807445  0.71915711  0.01386441    -0.73660
O1940       O  0.40039139  0.74034994  0.55385994    -0.79320
O1941       O  0.33901720  0.74629623  0.50903777    -0.77520
O1942       O  0.38243858  0.76809117  0.00977408    -1.13650
O1943       O  0.34014995  0.79296831  0.99787577    -0.72850
C1944       C  0.34666224  0.79785771  0.97116302     0.97870
C1945       C  0.43850487  0.77327217  0.01386555     0.94260
Al1946     Al  0.39717621  0.73907967  0.01138784     1.55560
O1947       O  0.38308460  0.81914403  0.51305910    -0.77470
C1948       C  0.34595137  0.72433995  0.00866454     0.98430
C1949       C  0.40298768  0.75089433  0.94998806     0.93310
O1950       O  0.41032179  0.77180242  0.95830264    -0.82790
O1951       O  0.36645230  0.79208804  0.71325559    -0.82250
C1952       C  0.39037562  0.74637972  0.82258607     0.97100
O1953       O  0.36913224  0.75371721  0.81538866    -0.71370
O1954       O  0.36964255  0.80047391  0.80033391    -0.74960
Al1955     Al  0.35734409  0.77193267  0.78113590     1.48980
C1956       C  0.37394991  0.81983316  0.78566346     0.92360
O1957       O  0.42597667  0.79275071  0.75613473    -0.81180
O1958       O  0.39404459  0.73392226  0.71939892    -0.74740
Al1959     Al  0.39530066  0.79146321  0.73580816     1.90120
O1960       O  0.43181990  0.75294092  0.75333946    -0.73810
O1961       O  0.37172364  0.71839137  0.76827629    -0.73660
O1962       O  0.40650539  0.74247119  0.80278957    -0.79320
O1963       O  0.34166355  0.74456466  0.76449001    -0.77520
O1964       O  0.38416647  0.76761232  0.75956644    -1.13650
O1965       O  0.34037291  0.79097780  0.75094417    -0.72850
C1966       C  0.34552172  0.79608790  0.72386893     0.97870
C1967       C  0.44026085  0.77457645  0.75449771     0.94260
Al1968     Al  0.39993994  0.73911897  0.76097846     1.55560
O1969       O  0.38360636  0.81858234  0.75987347    -0.77470
C1970       C  0.34923012  0.72279996  0.76441148     0.98430
C1971       C  0.40033600  0.74871570  0.69888018     0.93310
O1972       O  0.40798920  0.76997341  0.70515850    -0.82790
O1973       O  0.57003854  0.77691918  0.94845720    -0.82250
C1974       C  0.59810926  0.73540470  0.55549723     0.97100
O1975       O  0.57982965  0.73505090  0.53802929    -0.71370
O1976       O  0.55018722  0.75204009  0.49623346    -0.74960
Al1977     Al  0.58218915  0.73762085  0.99509737     1.48980
C1978       C  0.54276222  0.77261469  0.00565147     0.92360
O1979       O  0.60064494  0.81519367  0.51283103    -0.81180
O1980       O  0.64075925  0.79204650  0.99036614    -0.74740
Al1981     Al  0.58566538  0.79311725  0.98253684     1.90120
O1982       O  0.61522448  0.78793917  0.54408855    -0.73810
O1983       O  0.64049292  0.74331103  0.48856885    -0.73660
O1984       O  0.61905337  0.74103623  0.54523713    -0.79320
O1985       O  0.61088928  0.71660449  0.99381796    -0.77520
O1986       O  0.59829706  0.76560387  0.99751106    -1.13650
O1987       O  0.58351839  0.73888841  0.95235421    -0.72850
C1988       C  0.57569208  0.75654413  0.93639466     0.97870
C1989       C  0.61233453  0.80994226  0.53685283     0.94260
Al1990     Al  0.62687129  0.76602188  0.51554417     1.55560
O1991       O  0.55714868  0.79070529  0.00688860    -0.77470
C1992       C  0.63316545  0.72139861  0.98834963     0.98430
C1993       C  0.63334177  0.80270491  0.96652147     0.93310
O1994       O  0.61228785  0.79830825  0.95655749    -0.82790
O1995       O  0.61815396  0.79854221  0.78675723    -0.82250
C1996       C  0.59691169  0.74134829  0.68399072     0.97100
O1997       O  0.61709096  0.75039198  0.69179497    -0.71370
O1998       O  0.61278287  0.79730161  0.69844010    -0.74960
Al1999     Al  0.62672243  0.77228204  0.72244107     1.48980
C2000       C  0.61101148  0.81866764  0.70866037     0.92360
O2001       O  0.55857644  0.79712056  0.74262152    -0.81180
O2002       O  0.58648616  0.74134143  0.78935950    -0.74740
Al2003     Al  0.58910135  0.79695426  0.76334887     1.90120
O2004       O  0.55230081  0.75724641  0.74743587    -0.73810
O2005       O  0.61237192  0.72099328  0.74506360    -0.73660
O2006       O  0.57950205  0.73997492  0.70274423    -0.79320
O2007       O  0.64267062  0.74722480  0.74397538    -0.77520
O2008       O  0.59981791  0.77028538  0.74397030    -1.13650
O2009       O  0.64329115  0.79457949  0.74867386    -0.72850
C2010       C  0.63934386  0.80031302  0.77572688     0.97870
C2011       C  0.54429575  0.77881203  0.74319000     0.94260
Al2012     Al  0.58378911  0.74209877  0.74609399     1.55560
O2013       O  0.60215259  0.82159430  0.73474266    -0.77470
C2014       C  0.63505049  0.72554095  0.74685269     0.98430
C2015       C  0.57919387  0.75818290  0.80670665     0.93310
O2016       O  0.57481075  0.77939493  0.79646057    -0.82790
O2017       O  0.87007735  0.30393018  0.58796808    -0.82250
C2018       C  0.89222780  0.24520650  0.68848499     0.97100
O2019       O  0.87086104  0.25214995  0.68139459    -0.71370
O2020       O  0.87657219  0.29923084  0.67528657    -0.74960
Al2021     Al  0.86091809  0.27575841  0.65113141     1.48980
C2022       C  0.87784917  0.32075020  0.66522934     0.92360
O2023       O  0.93020543  0.29736164  0.62875015    -0.81180
O2024       O  0.89684413  0.24348601  0.58438414    -0.74740
Al2025     Al  0.89898649  0.29952164  0.60963290     1.90120
O2026       O  0.93394248  0.25788143  0.62071131    -0.73810
O2027       O  0.87345455  0.22465102  0.63098054    -0.73660
O2028       O  0.90883808  0.24411065  0.66872794    -0.79320
O2029       O  0.84382695  0.25172604  0.62890934    -0.77520
O2030       O  0.88729312  0.27329019  0.62885629    -1.13650
O2031       O  0.84486724  0.30091678  0.62607899    -0.72850
C2032       C  0.85021175  0.30943395  0.60028565     0.97870
C2033       C  0.94346681  0.27876871  0.62403518     0.94260
Al2034     Al  0.90225686  0.24465626  0.62645192     1.55560
O2035       O  0.88800478  0.32423699  0.63978600    -0.77470
C2036       C  0.85104155  0.22973952  0.62742005     0.98430
C2037       C  0.90333455  0.25988082  0.56575261     0.93310
O2038       O  0.90995735  0.28094935  0.57490344    -0.82790
O2039       O  0.86677569  0.28723006  0.83052424    -0.82250
C2040       C  0.88814908  0.24246617  0.93948227     0.97100
O2041       O  0.86647988  0.24783424  0.93183691    -0.71370
O2042       O  0.86820993  0.29377879  0.91835631    -0.74960
Al2043     Al  0.85568574  0.26665896  0.89761915     1.48980
C2044       C  0.86974133  0.31383344  0.90472009     0.92360
O2045       O  0.92454748  0.28898122  0.87706154    -0.81180
O2046       O  0.89443347  0.23065858  0.83526962    -0.74740
Al2047     Al  0.89445080  0.28760589  0.85485748     1.90120
O2048       O  0.93065197  0.24919571  0.87263041    -0.73810
O2049       O  0.86980111  0.21360802  0.88343094    -0.73660
O2050       O  0.90416554  0.23738395  0.92001665    -0.79320
O2051       O  0.84024622  0.24034546  0.87959082    -0.77520
O2052       O  0.88290807  0.26290565  0.87691395    -1.13650
O2053       O  0.83962563  0.28627399  0.86698178    -0.72850
C2054       C  0.84558905  0.29138663  0.84006839     0.97870
C2055       C  0.93907112  0.27086333  0.87497781     0.94260
Al2056     Al  0.89865163  0.23461228  0.87786820     1.55560
O2057       O  0.88001546  0.31447208  0.87909622    -0.77470
C2058       C  0.84722354  0.21849804  0.88034082     0.98430
C2059       C  0.90257616  0.24598593  0.81615541     0.93310
O2060       O  0.90921761  0.26718353  0.82440233    -0.82790
O2061       O  0.11938533  0.29033148  0.66421976    -0.82250
C2062       C  0.09820753  0.24700583  0.55358731     0.97100
O2063       O  0.11936760  0.25410152  0.56129992    -0.71370
O2064       O  0.11945940  0.30045638  0.57640977    -0.74960
Al2065     Al  0.13045511  0.27153733  0.59632522     1.48980
C2066       C  0.11526479  0.31987502  0.59057117     0.92360
O2067       O  0.06237939  0.29469606  0.61733609    -0.81180
O2068       O  0.09010861  0.23453958  0.65692973    -0.74740
Al2069     Al  0.09171079  0.29179365  0.63967140     1.90120
O2070       O  0.05498007  0.25493095  0.61890969    -0.73810
O2071       O  0.11428824  0.21828748  0.60968238    -0.73660
O2072       O  0.08178025  0.24290059  0.57287498    -0.79320
O2073       O  0.14492269  0.24375420  0.61331749    -0.77520
O2074       O  0.10288769  0.26772121  0.61658224    -1.13650
O2075       O  0.14679101  0.28955411  0.62791583    -0.72850
C2076       C  0.14085256  0.29368087  0.65501017     0.97870
C2077       C  0.04760478  0.27690761  0.61606909     0.94260
Al2078     Al  0.08646109  0.23975101  0.61475314     1.55560
O2079       O  0.10565867  0.31878350  0.61644651    -0.77470
C2080       C  0.13690383  0.22221530  0.61285657     0.98430
C2081       C  0.08266015  0.24941880  0.67654827     0.93310
O2082       O  0.07620553  0.27087406  0.66909550    -0.82790
O2083       O  0.11852830  0.29597705  0.91041938    -0.82250
C2084       C  0.09543173  0.24715391  0.80325401     0.97100
O2085       O  0.11628573  0.25560674  0.80996197    -0.71370
O2086       O  0.11488781  0.30255796  0.82283620    -0.74960
Al2087     Al  0.12756813  0.27467736  0.84333928     1.48980
C2088       C  0.11090762  0.32231370  0.83650059     0.92360
O2089       O  0.05819980  0.29578665  0.86783289    -0.81180
O2090       O  0.09041414  0.23808296  0.90727278    -0.74740
Al2091     Al  0.08938560  0.29504592  0.88780633     1.90120
O2092       O  0.05343784  0.25570171  0.87028663    -0.73810
O2093       O  0.11385180  0.22138549  0.86016071    -0.73660
O2094       O  0.07941815  0.24344650  0.82321516    -0.79320
O2095       O  0.14373798  0.24781109  0.86123204    -0.77520
O2096       O  0.10071367  0.27063354  0.86511905    -1.13650
O2097       O  0.14428850  0.29434385  0.87256535    -0.72850
C2098       C  0.13972340  0.29896808  0.89984792     0.97870
C2099       C  0.04443734  0.27703491  0.86762978     0.94260
Al2100     Al  0.08539161  0.24193821  0.86521615     1.55560
O2101       O  0.10125180  0.32175547  0.86238250    -0.77470
C2102       C  0.13634106  0.22603637  0.86314142     0.98430
C2103       C  0.08346536  0.25321518  0.92683564     0.93310
O2104       O  0.07643332  0.27444495  0.91920410    -0.82790
O2105       O  0.27790929  0.87742247  0.66339567    -0.82250
C2106       C  0.23264411  0.89685284  0.55290631     0.97100
O2107       O  0.23858887  0.87583406  0.56259374    -0.71370
O2108       O  0.28512793  0.87838042  0.57570221    -0.74960
Al2109     Al  0.25750141  0.86630795  0.59675203     1.48980
C2110       C  0.30471018  0.88419361  0.58879179     0.92360
O2111       O  0.27830895  0.93615320  0.61851674    -0.81180
O2112       O  0.21913147  0.90613168  0.65532011    -0.74740
Al2113     Al  0.27699944  0.90583951  0.63942867     1.90120
O2114       O  0.23846126  0.94183645  0.61805669    -0.73810
O2115       O  0.20429681  0.88077255  0.60841907    -0.73660
O2116       O  0.22825642  0.91412580  0.57096276    -0.79320
O2117       O  0.23083178  0.85140131  0.61574760    -0.77520
O2118       O  0.25319740  0.89405207  0.61632212    -1.13650
O2119       O  0.27741076  0.85068831  0.62672967    -0.72850
C2120       C  0.28225601  0.85634043  0.65353853     0.97870
C2121       C  0.26004730  0.95030626  0.61741510     0.94260
Al2122     Al  0.22470563  0.90966957  0.61337755     1.55560
O2123       O  0.30401245  0.89391239  0.61465511    -0.77470
C2124       C  0.20899457  0.85852863  0.61440648     0.98430
C2125       C  0.23364439  0.91311525  0.67564729     0.93310
O2126       O  0.25543268  0.91918767  0.66948440    -0.82790
O2127       O  0.28207934  0.87649322  0.90628778    -0.82250
C2128       C  0.22865031  0.89941584  0.80185888     0.97100
O2129       O  0.23707198  0.87853232  0.80874026    -0.71370
O2130       O  0.28448868  0.88122416  0.81847588    -0.74960
Al2131     Al  0.25794843  0.86784312  0.84075857     1.48980
C2132       C  0.30459021  0.88631054  0.83091446     0.92360
O2133       O  0.27850813  0.93773103  0.86475093    -0.81180
O2134       O  0.22269499  0.90520082  0.90636965    -0.74740
Al2135     Al  0.27925460  0.90619175  0.88414040     1.90120
O2136       O  0.23859976  0.94178346  0.86837604    -0.73810
O2137       O  0.20532949  0.88073482  0.85990987    -0.73660
O2138       O  0.22558329  0.91561808  0.82167778    -0.79320
O2139       O  0.23240413  0.85126154  0.86070370    -0.77520
O2140       O  0.25424836  0.89466257  0.86275066    -1.13650
O2141       O  0.27960494  0.85131000  0.86805918    -0.72850
C2142       C  0.28533956  0.85560016  0.89500533     0.97870
C2143       C  0.25960140  0.95120666  0.86537607     0.94260
Al2144     Al  0.22533992  0.90972924  0.86391076     1.55560
O2145       O  0.30476335  0.89567444  0.85689247    -0.77470
C2146       C  0.21063007  0.85834722  0.86352606     0.98430
C2147       C  0.23879109  0.91157297  0.92515243     0.93310
O2148       O  0.25984853  0.91809831  0.91665477    -0.82790
O2149       O  0.28391829  0.12519537  0.58683170    -0.82250
C2150       C  0.23110494  0.11092147  0.69265049     0.97100
O2151       O  0.23802828  0.13157104  0.68265785    -0.71370
O2152       O  0.28513870  0.12955122  0.67346495    -0.74960
Al2153     Al  0.25842033  0.14024709  0.64954047     1.48980
C2154       C  0.30514344  0.12238534  0.66260302     0.92360
O2155       O  0.27836964  0.06831549  0.63529316    -0.81180
O2156       O  0.22356534  0.09972560  0.58897360    -0.74740
Al2157     Al  0.28001243  0.09806078  0.61225990     1.90120
O2158       O  0.23880721  0.06434519  0.62882959    -0.73810
O2159       O  0.20579965  0.12566007  0.63469648    -0.73660
O2160       O  0.22717955  0.09323651  0.67485815    -0.79320
O2161       O  0.23266536  0.15459197  0.62774817    -0.77520
O2162       O  0.25502315  0.11168844  0.63150549    -1.13650
O2163       O  0.27940963  0.15457051  0.61992003    -0.72850
C2164       C  0.28634697  0.14720694  0.59448834     0.97870
C2165       C  0.25974696  0.05482541  0.63193480     0.94260
Al2166     Al  0.22603313  0.09675691  0.63196328     1.55560
O2167       O  0.30548248  0.11025923  0.63845859    -0.77470
C2168       C  0.21079332  0.14760513  0.62800933     0.98430
C2169       C  0.23990548  0.09218781  0.57097756     0.93310
O2170       O  0.26023722  0.08453802  0.58095099    -0.82790
O2171       O  0.27856948  0.12927464  0.83522727    -0.82250
C2172       C  0.23163779  0.10835054  0.94379472     0.97100
O2173       O  0.23999882  0.12925468  0.93671873    -0.71370
O2174       O  0.28627634  0.12727239  0.92216273    -0.74960
Al2175     Al  0.25818381  0.14027375  0.90240220     1.48980
C2176       C  0.30546211  0.12220450  0.90789303     0.92360
O2177       O  0.27608435  0.07008566  0.87952140    -0.81180
O2178       O  0.21923781  0.10417083  0.84015373    -0.74740
Al2179     Al  0.27643375  0.10076379  0.85850233     1.90120
O2180       O  0.23613121  0.06631868  0.87622231    -0.73810
O2181       O  0.20406242  0.12822621  0.88798328    -0.73660
O2182       O  0.22574306  0.09284467  0.92410473    -0.79320
O2183       O  0.23155935  0.15702086  0.88543716    -0.77520
O2184       O  0.25280678  0.11334847  0.88132051    -1.13650
O2185       O  0.27739127  0.15627014  0.87185295    -0.72850
C2186       C  0.28239187  0.15050706  0.84503691     0.97870
C2187       C  0.25723872  0.05664956  0.87785849     0.94260
Al2188     Al  0.22353103  0.09892140  0.88219226     1.55560
O2189       O  0.30392447  0.11182089  0.88261979    -0.77470
C2190       C  0.20957490  0.15054760  0.88431991     0.98430
C2191       C  0.23409972  0.09683456  0.82044022     0.93310
O2192       O  0.25487189  0.08850588  0.82778767    -0.82790
O2193       O  0.86507981  0.71296075  0.65946849    -0.82250
C2194       C  0.88862073  0.76206800  0.55263043     0.97100
O2195       O  0.86749025  0.75416263  0.55912143    -0.71370
O2196       O  0.86854152  0.70739381  0.57200680    -0.74960
Al2197     Al  0.85582297  0.73508728  0.59240297     1.48980
C2198       C  0.87271407  0.68759591  0.58571652     0.92360
O2199       O  0.92474153  0.71399332  0.61593925    -0.81180
O2200       O  0.89298373  0.77095191  0.65763703    -0.74740
Al2201     Al  0.89396302  0.71426346  0.63661186     1.90120
O2202       O  0.92985293  0.75382173  0.62079413    -0.73810
O2203       O  0.86922965  0.78838060  0.60932071    -0.73660
O2204       O  0.90414873  0.76643863  0.57298208    -0.79320
O2205       O  0.83947049  0.76181397  0.60971441    -0.77520
O2206       O  0.88249451  0.73902750  0.61447228    -1.13650
O2207       O  0.83901808  0.71531433  0.62181800    -0.72850
C2208       C  0.84376573  0.71035433  0.64908638     0.97870
C2209       C  0.93873530  0.73242729  0.61828249     0.94260
Al2210     Al  0.89786474  0.76772746  0.61501019     1.55560
O2211       O  0.88216175  0.68798539  0.61160941    -0.77470
C2212       C  0.84662607  0.78364260  0.61117726     0.98430
C2213       C  0.90071491  0.75523392  0.67651207     0.93310
O2214       O  0.90707131  0.73416886  0.66780252    -0.82790
O2215       O  0.86958750  0.71424996  0.91150753    -0.82250
C2216       C  0.89291958  0.76397600  0.80435770     0.97100
O2217       O  0.87124184  0.75949062  0.81272505    -0.71370
O2218       O  0.86946096  0.71246198  0.82347288    -0.74960
Al2219     Al  0.85997625  0.73991747  0.84625107     1.48980
C2220       C  0.87199539  0.69164943  0.83538009     0.92360
O2221       O  0.92779349  0.71195820  0.86544612    -0.81180
O2222       O  0.90195023  0.77125247  0.90716126    -0.74740
Al2223     Al  0.89777470  0.71436346  0.88709926     1.90120
O2224       O  0.93625152  0.75125486  0.86942004    -0.73810
O2225       O  0.87914220  0.79087828  0.86075032    -0.73660
O2226       O  0.91019485  0.76550866  0.82312425    -0.79320
O2227       O  0.84760927  0.76685789  0.86692779    -0.77520
O2228       O  0.88783806  0.74050461  0.86601339    -1.13650
O2229       O  0.84279154  0.72030270  0.87563445    -0.72850
C2230       C  0.84792535  0.71325138  0.90202964     0.97870
C2231       C  0.94305563  0.72938464  0.86517082     0.94260
Al2232     Al  0.90569735  0.76766580  0.86522468     1.55560
O2233       O  0.88298869  0.68961705  0.86048344    -0.77470
C2234       C  0.85678424  0.78793891  0.86683430     0.98430
C2235       C  0.90722057  0.75509128  0.92657410     0.93310
O2236       O  0.91287874  0.73344968  0.91882383    -0.82790
O2237       O  0.11854554  0.71386036  0.58603157    -0.82250
C2238       C  0.09318325  0.76381847  0.69089443     0.97100
O2239       O  0.11454113  0.75682443  0.68448904    -0.71370
O2240       O  0.11361149  0.70954277  0.67413236    -0.74960
Al2241     Al  0.12603462  0.73678396  0.65233323     1.48980
C2242       C  0.11033698  0.68924148  0.66141781     0.92360
O2243       O  0.05803303  0.71294258  0.62766720    -0.81180
O2244       O  0.08727942  0.77108445  0.58661213    -0.74740
Al2245     Al  0.08912782  0.71431142  0.60816391     1.90120
O2246       O  0.05158878  0.75279715  0.62442708    -0.73810
O2247       O  0.11119749  0.78922603  0.63316684    -0.73660
O2248       O  0.07715528  0.76681555  0.67081866    -0.79320
O2249       O  0.14145426  0.76306048  0.63314279    -0.77520
O2250       O  0.09931575  0.73962013  0.62997575    -1.13650
O2251       O  0.14343539  0.71637540  0.62470044    -0.72850
C2252       C  0.13954054  0.71134719  0.59740554     0.97870
C2253       C  0.04357515  0.73111835  0.62751594     0.94260
Al2254     Al  0.08303191  0.76781414  0.62887631     1.55560
O2255       O  0.10144044  0.68873715  0.63508347    -0.77470
C2256       C  0.13382585  0.78472000  0.63086567     0.98430
C2257       C  0.08047491  0.75534547  0.56765676     0.93310
O2258       O  0.07573504  0.73362532  0.57590939    -0.82790
O2259       O  0.12359573  0.71337890  0.83907885    -0.82250
C2260       C  0.09270875  0.76287559  0.94163589     0.97100
O2261       O  0.11432617  0.75554559  0.93726201    -0.71370
O2262       O  0.11449899  0.70831767  0.92639727    -0.74960
Al2263     Al  0.12794582  0.73589387  0.90599526     1.48980
C2264       C  0.11144326  0.68822870  0.91311394     0.92360
O2265       O  0.06145688  0.71238335  0.87652713    -0.81180
O2266       O  0.09282964  0.77036749  0.83678338    -0.74740
Al2267     Al  0.09330742  0.71369854  0.85895137     1.90120
O2268       O  0.05522426  0.75207414  0.87119630    -0.73810
O2269       O  0.11406007  0.78839865  0.88545665    -0.73660
O2270       O  0.07798433  0.76607830  0.92012797    -0.79320
O2271       O  0.14451121  0.76254994  0.88870892    -0.77520
O2272       O  0.10250850  0.73890542  0.88140845    -1.13650
O2273       O  0.14688574  0.71571668  0.87937514    -0.72850
C2274       C  0.14408353  0.71094764  0.85176955     0.97870
C2275       C  0.04703400  0.73037210  0.87318386     0.94260
Al2276     Al  0.08629146  0.76707359  0.87877732     1.55560
O2277       O  0.10408527  0.68813572  0.88616210    -0.77470
C2278       C  0.13679636  0.78408326  0.88512229     0.98430
C2279       C  0.08617301  0.75463509  0.81770191     0.93310
O2280       O  0.08149456  0.73290098  0.82586609    -0.82790
O2281       O  0.69928689  0.88333417  0.57756768    -0.82250
C2282       C  0.75335282  0.89847215  0.68352751     0.97100
O2283       O  0.74750994  0.87738790  0.67410427    -0.71370
O2284       O  0.70122449  0.88296446  0.66559798    -0.74960
Al2285     Al  0.72574045  0.86958074  0.64119954     1.48980
C2286       C  0.68026713  0.88684962  0.65516672     0.92360
O2287       O  0.70621996  0.94082238  0.62386863    -0.81180
O2288       O  0.76130519  0.90900455  0.58062754    -0.74740
Al2289     Al  0.70420241  0.91089380  0.60212117     1.90120
O2290       O  0.74605426  0.94453645  0.61933040    -0.73810
O2291       O  0.77802834  0.88212543  0.62581600    -0.73660
O2292       O  0.75711556  0.91584817  0.66518417    -0.79320
O2293       O  0.75047088  0.85363585  0.61897525    -0.77520
O2294       O  0.72940673  0.89743155  0.62181765    -1.13650
O2295       O  0.70175677  0.85588537  0.61329989    -0.72850
C2296       C  0.69269166  0.86312109  0.58849810     0.97870
C2297       C  0.72524239  0.95397848  0.62372791     0.94260
Al2298     Al  0.75845850  0.91189235  0.62259903     1.55560
O2299       O  0.67819837  0.89881802  0.63050881    -0.77470
C2300       C  0.77263462  0.86000104  0.62027315     0.98430
C2301       C  0.74601247  0.91646106  0.56128253     0.93310
O2302       O  0.72467052  0.92338348  0.56922090    -0.82790
O2303       O  0.70880222  0.87431476  0.83550289    -0.82250
C2304       C  0.76250362  0.90316290  0.93483724     0.97100
O2305       O  0.75958474  0.88078393  0.92832979    -0.71370
O2306       O  0.71285015  0.87963753  0.92308643    -0.74960
Al2307     Al  0.73764322  0.86769906  0.89849005     1.48980
C2308       C  0.69137151  0.87974211  0.91349239     0.92360
O2309       O  0.70832229  0.93391548  0.87805401    -0.81180
O2310       O  0.76435384  0.90691912  0.82953256    -0.74740
Al2311     Al  0.70952488  0.90322101  0.85772416     1.90120
O2312       O  0.74671481  0.94270372  0.86740821    -0.73810
O2313       O  0.78706814  0.88572304  0.87659545    -0.73660
O2314       O  0.76365412  0.91922848  0.91425140    -0.79320
O2315       O  0.76281290  0.85378158  0.87626966    -0.77520
O2316       O  0.73698962  0.89433244  0.87598685    -1.13650
O2317       O  0.71539662  0.84884496  0.87313335    -0.72850
C2318       C  0.70757633  0.85312517  0.84671449     0.97870
C2319       C  0.72546124  0.94937111  0.87518627     0.94260
Al2320     Al  0.76367485  0.91238082  0.87212877     1.55560
O2321       O  0.68701851  0.88883990  0.88764662    -0.77470
C2322       C  0.78395512  0.86275044  0.87523499     0.98430
C2323       C  0.74646514  0.91183906  0.81226295     0.93310
O2324       O  0.72578783  0.91748635  0.82328927    -0.82790
O2325       O  0.70765638  0.13472832  0.65507076    -0.82250
C2326       C  0.76288647  0.10737784  0.55612493     0.97100
O2327       O  0.75775548  0.12947650  0.56171217    -0.71370
O2328       O  0.71108347  0.12503414  0.56779258    -0.74960
Al2329     Al  0.73462006  0.14109703  0.59087916     1.48980
C2330       C  0.68977298  0.12500770  0.57793170     0.92360
O2331       O  0.71146830  0.07351475  0.61595192    -0.81180
O2332       O  0.76554244  0.10690660  0.66124839    -0.74740
Al2333     Al  0.71034431  0.10502841  0.63449518     1.90120
O2334       O  0.75062432  0.06839431  0.62580415    -0.73810
O2335       O  0.78551486  0.12919256  0.61357199    -0.73660
O2336       O  0.76524273  0.09200726  0.57733198    -0.79320
O2337       O  0.75821672  0.15856412  0.61178200    -0.77520
O2338       O  0.73672645  0.11554990  0.61508710    -1.13650
O2339       O  0.71089569  0.15875590  0.61534383    -0.72850
C2340       C  0.70451044  0.15521601  0.64245128     0.97870
C2341       C  0.72956906  0.05947724  0.62079999     0.94260
Al2342     Al  0.76488248  0.10018760  0.61916178     1.55560
O2343       O  0.68620161  0.11659965  0.60431164    -0.77470
C2344       C  0.78006435  0.15183002  0.61471873     0.98430
C2345       C  0.74888346  0.10002011  0.67922365     0.93310
O2346       O  0.72815504  0.09319423  0.66945051    -0.82790
O2347       O  0.69686739  0.12672754  0.91456206    -0.82250
C2348       C  0.74883587  0.10878816  0.80778499     0.97100
O2349       O  0.74211139  0.12982191  0.81654570    -0.71370
O2350       O  0.69516194  0.12478926  0.82672832    -0.74960
Al2351     Al  0.72084682  0.13850297  0.84953283     1.48980
C2352       C  0.67521866  0.11814045  0.83842219     0.92360
O2353       O  0.70254351  0.06722138  0.87213818    -0.81180
O2354       O  0.75880587  0.10063222  0.91070243    -0.74740
Al2355     Al  0.70117565  0.09809057  0.89191344     1.90120
O2356       O  0.74237449  0.06408926  0.87479914    -0.73810
O2357       O  0.77345767  0.12567008  0.86332142    -0.73660
O2358       O  0.75151149  0.09140188  0.82652041    -0.79320
O2359       O  0.74656126  0.15481068  0.87045569    -0.77520
O2360       O  0.72528320  0.11100172  0.87011974    -1.13650
O2361       O  0.69753440  0.15282769  0.87715912    -0.72850
C2362       C  0.68954163  0.14637712  0.90275631     0.97870
C2363       C  0.72156010  0.05417568  0.87341649     0.94260
Al2364     Al  0.75425174  0.09646747  0.86884489     1.55560
O2365       O  0.67497556  0.10797437  0.86424925    -0.77470
C2366       C  0.76861366  0.14776102  0.86932511     0.98430
C2367       C  0.74426672  0.09339300  0.93100587     0.93310
O2368       O  0.72249236  0.08707996  0.92449568    -0.82790
C2369       C  0.74554235  0.08084822  0.73015872    -0.21760
C2370       C  0.75291840  0.10066054  0.71199885    -0.09800
C2371       C  0.76126621  0.12223705  0.72567298     0.29060
C2372       C  0.76087616  0.12439051  0.75701841    -0.21760
C2373       C  0.75278769  0.10485766  0.77525236    -0.09810
C2374       C  0.74585649  0.08272266  0.76157673     0.29060
F2375       F  0.73770309  0.06355388  0.77842081    -0.20340
H2376       H  0.73889116  0.06414487  0.71993412     0.17430
H2377       H  0.76621213  0.14163605  0.76705116     0.17440
F2378       F  0.76800015  0.14187655  0.70867628    -0.20320
C2379       C  0.76997559  0.11075342  0.97204513    -0.21760
C2380       C  0.75250243  0.09342850  0.96279602    -0.09800
C2381       C  0.74171551  0.07803999  0.98459936     0.29060
C2382       C  0.74736247  0.08096780  0.51513739    -0.21760
C2383       C  0.76331426  0.09963520  0.52442836    -0.09810
C2384       C  0.77504585  0.11412719  0.50259174     0.29060
F2385       F  0.79042878  0.13240071  0.51093769    -0.20340
H2386       H  0.77854849  0.12284318  0.95574965     0.17430
H2387       H  0.73778274  0.06992556  0.53170787     0.17440
F2388       F  0.72505423  0.06083073  0.97655334    -0.20320
C2389       C  0.70094496  0.98769454  0.86709156    -0.21760
C2390       C  0.72143247  0.97573465  0.87946321    -0.09800
C2391       C  0.74042731  0.98968690  0.89186607     0.29060
C2392       C  0.73981874  0.01506316  0.89003073    -0.21760
C2393       C  0.72023155  0.02723065  0.87595835    -0.09810
C2394       C  0.70025869  0.01342922  0.86541261     0.29060
F2395       F  0.68082052  0.02463913  0.85219340    -0.20340
H2396       H  0.68622041  0.97714852  0.85724424     0.17430
H2397       H  0.75503325  0.02523283  0.89937158     0.17440
F2398       F  0.76009429  0.97869330  0.90492411    -0.20320
C2399       C  0.72985658  0.90298028  0.73031070    -0.21760
C2400       C  0.75270141  0.90311522  0.71615094    -0.09800
C2401       C  0.77382517  0.90719896  0.73342271     0.29060
C2402       C  0.77193026  0.91039231  0.76476041    -0.21760
C2403       C  0.74889147  0.91012045  0.77900671    -0.09810
C2404       C  0.72783152  0.90658325  0.76119469     0.29060
F2405       F  0.70516846  0.90565184  0.77363395    -0.20340
H2406       H  0.71335860  0.89998998  0.71737307     0.17430
H2407       H  0.78842568  0.91295046  0.77788006     0.17440
F2408       F  0.79617861  0.90741331  0.72018302    -0.20320
C2409       C  0.74128851  0.93108261  0.50776643    -0.21760
C2410       C  0.75301426  0.91592807  0.52901567    -0.09800
C2411       C  0.77032005  0.89864305  0.51882635     0.29060
C2412       C  0.77455544  0.89564539  0.98806253    -0.21760
C2413       C  0.76227862  0.91021999  0.96683984    -0.09810
C2414       C  0.74607946  0.92848724  0.97693426     0.29060
F2415       F  0.73333992  0.94240167  0.95689583    -0.20340
H2416       H  0.72790165  0.94446267  0.51496835     0.17430
H2417       H  0.78675691  0.88121563  0.98071086     0.17440
F2418       F  0.78191849  0.88334829  0.53840483    -0.20320
C2419       C  0.70499130  0.99433755  0.61272659    -0.21760
C2420       C  0.72376450  0.98085882  0.62682826    -0.09800
C2421       C  0.74319119  0.99347320  0.64037828     0.29060
C2422       C  0.74452788  0.01891285  0.63845199    -0.21760
C2423       C  0.72654939  0.03251085  0.62303004    -0.09810
C2424       C  0.70631811  0.02004286  0.61080894     0.29060
F2425       F  0.68846516  0.03248422  0.59594226    -0.20340
H2426       H  0.68996983  0.98490764  0.60189139     0.17430
H2427       H  0.75994205  0.02797853  0.64892298     0.17440
F2428       F  0.76122059  0.98111746  0.65508000    -0.20320
C2429       C  0.09827592  0.78291454  0.74113909    -0.21760
C2430       C  0.08669944  0.76575097  0.72260205    -0.09800
C2431       C  0.07258855  0.74701837  0.73541062     0.29060
C2432       C  0.07130717  0.74455214  0.76653459    -0.21760
C2433       C  0.08405627  0.76076000  0.78540291    -0.09810
C2434       C  0.09663949  0.78073656  0.77248566     0.29060
F2435       F  0.10878507  0.79704114  0.78993623    -0.20340
H2436       H  0.10949569  0.79724994  0.73134181     0.17430
H2437       H  0.06129963  0.72912899  0.77583446     0.17440
F2438       F  0.06204222  0.72969775  0.71780623    -0.20320
C2439       C  0.06620392  0.74568693  0.51594829    -0.21760
C2440       C  0.07897602  0.76148264  0.53530065    -0.09800
C2441       C  0.09287258  0.78077141  0.52283841     0.29060
C2442       C  0.09591606  0.78246983  0.99165501    -0.21760
C2443       C  0.08448816  0.76556039  0.97267896    -0.09810
C2444       C  0.06885294  0.74774953  0.98484950     0.29060
F2445       F  0.05817406  0.73079749  0.96684080    -0.20340
H2446       H  0.05525698  0.73079309  0.52493200     0.17430
H2447       H  0.10823394  0.79612022  0.98240328     0.17440
F2448       F  0.10519243  0.79664379  0.54070581    -0.20320
C2449       C  0.84473763  0.83190630  0.85905629    -0.21760
C2450       C  0.84057748  0.80888646  0.87259610    -0.09800
C2451       C  0.81912975  0.80506465  0.88932268     0.29060
C2452       C  0.80139119  0.82315705  0.89049364    -0.21760
C2453       C  0.80461524  0.84554691  0.87533385    -0.09810
C2454       C  0.82681023  0.85030213  0.86049972     0.29060
F2455       F  0.83052995  0.87197690  0.84605096    -0.20340
H2456       H  0.86122402  0.83518653  0.84614795     0.17430
H2457       H  0.78475904  0.81942532  0.90296838     0.17440
F2458       F  0.81493807  0.78352173  0.90394929    -0.20320
C2459       C  0.98153005  0.70728553  0.87939872    -0.21760
C2460       C  0.96944315  0.72506982  0.86179039    -0.09800
C2461       C  0.98326463  0.74230851  0.84559348     0.29060
C2462       C  0.00850929  0.74310950  0.84892522    -0.21760
C2463       C  0.02060016  0.72670184  0.86834152    -0.09810
C2464       C  0.00711512  0.70799181  0.88258677     0.29060
F2465       F  0.01835482  0.69161538  0.90110059    -0.20340
H2466       H  0.97108358  0.69402681  0.89229831     0.17430
H2467       H  0.01861088  0.75714241  0.83683767     0.17440
F2468       F  0.97215462  0.75929382  0.82774041    -0.20320
C2469       C  0.83469087  0.82840385  0.61162110    -0.21760
C2470       C  0.82807035  0.80352776  0.61417139    -0.09800
C2471       C  0.80316955  0.79771377  0.61857104     0.29060
C2472       C  0.78553784  0.81617849  0.61989134    -0.21760
C2473       C  0.79202437  0.84100804  0.61725016    -0.09810
C2474       C  0.81690889  0.84700042  0.61322120     0.29060
F2475       F  0.82406979  0.87073521  0.61047168    -0.20340
H2476       H  0.85363185  0.83348634  0.60812474     0.17430
H2477       H  0.76665348  0.81091455  0.62349292     0.17440
F2478       F  0.79563666  0.77412477  0.62184273    -0.20320
C2479       C  0.89062920  0.78378588  0.75348379    -0.21760
C2480       C  0.89822039  0.76437894  0.77215391    -0.09800
C2481       C  0.90837906  0.74332850  0.75949050     0.29060
C2482       C  0.91025838  0.74129732  0.72845037    -0.21760
C2483       C  0.90185673  0.76016146  0.70924123    -0.09810
C2484       C  0.89268919  0.78186558  0.72208993     0.29060
F2485       F  0.88487142  0.80071940  0.70447896    -0.20340
H2486       H  0.88253974  0.80005331  0.76317709     0.17430
H2487       H  0.91740168  0.72431487  0.71949624     0.17440
F2488       F  0.91491768  0.72397042  0.77714956    -0.20320
C2489       C  0.92312207  0.75668583  0.97928816    -0.21760
C2490       C  0.90420616  0.76075871  0.95854792    -0.09800
C2491       C  0.88102616  0.76791567  0.96882500     0.29060
C2492       C  0.87648381  0.76970626  0.49957725    -0.21760
C2493       C  0.89508585  0.76485760  0.52057961    -0.09810
C2494       C  0.91875226  0.75915304  0.51019018     0.29060
F2495       F  0.93712600  0.75417752  0.52987133    -0.20340
H2496       H  0.94102991  0.75099967  0.97158166     0.17430
H2497       H  0.85810724  0.77395737  0.50704183     0.17440
F2498       F  0.86225336  0.77127447  0.94917280    -0.20320
C2499       C  0.97757278  0.74595942  0.64120622    -0.21760
C2500       C  0.96549442  0.72955503  0.62200721    -0.09800
C2501       C  0.97919292  0.71122579  0.60757430     0.29060
C2502       C  0.00479113  0.71046013  0.61106718    -0.21760
C2503       C  0.01681176  0.72784713  0.62909457    -0.09810
C2504       C  0.00284540  0.74512853  0.64478847     0.29060
F2505       F  0.01378495  0.76174933  0.66301475    -0.20340
H2506       H  0.96738395  0.75977771  0.65334283     0.17430
H2507       H  0.01531421  0.69723250  0.59840550     0.17440
F2508       F  0.96810412  0.69509219  0.58887771    -0.20320
C2509       C  0.21751675  0.08724962  0.73869963    -0.21760
C2510       C  0.22882307  0.10795710  0.72567767    -0.09800
C2511       C  0.23974858  0.12545686  0.74473439     0.29060
C2512       C  0.23972771  0.12204195  0.77566894    -0.21760
C2513       C  0.22927002  0.10113643  0.78850362    -0.09810
C2514       C  0.21777046  0.08380752  0.77007240     0.29060
F2515       F  0.20762008  0.06333849  0.78226932    -0.20340
H2516       H  0.20908646  0.07349850  0.72461146     0.17430
H2517       H  0.24886738  0.13541720  0.78964487     0.17440
F2518       F  0.25182584  0.14530221  0.73363205    -0.20320
C2519       C  0.21331970  0.09716915  0.52488365    -0.21760
C2520       C  0.23651476  0.09336384  0.53794202    -0.09800
C2521       C  0.25729385  0.09287127  0.51908188     0.29060
C2522       C  0.25495184  0.09694462  0.98837933    -0.21760
C2523       C  0.23205823  0.10133800  0.97556539    -0.09810
C2524       C  0.21105465  0.10097310  0.99369356     0.29060
F2525       F  0.18868612  0.10526589  0.98148564    -0.20340
H2526       H  0.19710788  0.09773913  0.53884733     0.17430
H2527       H  0.27128273  0.09735703  0.97454718     0.17440
F2528       F  0.28022612  0.08986921  0.53029631    -0.20320
C2529       C  0.16645131  0.84549770  0.86568711    -0.21760
C2530       C  0.19133062  0.84007811  0.87054065    -0.09800
C2531       C  0.19771420  0.81667582  0.88153805     0.29060
C2532       C  0.17977369  0.79899226  0.88653885    -0.21760
C2533       C  0.15496326  0.80402999  0.88089926    -0.09810
C2534       C  0.14837357  0.82766080  0.87076231     0.29060
F2535       F  0.12465481  0.83337182  0.86497164    -0.20340
H2536       H  0.16102147  0.86338562  0.85731155     0.17430
H2537       H  0.18546380  0.78114405  0.89478809     0.17440
F2538       F  0.22134374  0.81075017  0.88764519    -0.20320
C2539       C  0.28133763  0.99073888  0.87736975    -0.21760
C2540       C  0.26118446  0.97834641  0.86490509    -0.09800
C2541       C  0.24061890  0.99207714  0.85590845     0.29060
C2542       C  0.23970066  0.01723931  0.86070920    -0.21760
C2543       C  0.25930292  0.02966783  0.87422433    -0.09810
C2544       C  0.28050289  0.01626758  0.88188313     0.29060
F2545       F  0.30001528  0.02760926  0.89455109    -0.20340
H2546       H  0.29728579  0.98054898  0.88475161     0.17430
H2547       H  0.22345063  0.02706301  0.85355688     0.17440
F2548       F  0.22105915  0.98110925  0.84278449    -0.20320
C2549       C  0.16434563  0.84682557  0.61699730    -0.21760
C2550       C  0.18922377  0.84026307  0.61907368    -0.09800
C2551       C  0.19526205  0.81560099  0.62510693     0.29060
C2552       C  0.17704468  0.79812768  0.62866299    -0.21760
C2553       C  0.15219500  0.80443573  0.62652884    -0.09810
C2554       C  0.14590887  0.82908462  0.62074345     0.29060
F2555       F  0.12213031  0.83601860  0.61843183    -0.20340
H2556       H  0.15916057  0.86564158  0.61233689     0.17430
H2557       H  0.18263428  0.77941971  0.63328956     0.17440
F2558       F  0.21886037  0.80803284  0.62753846    -0.20320
C2559       C  0.22983275  0.92803065  0.75803250    -0.21760
C2560       C  0.22386484  0.90486184  0.76988512    -0.09800
C2561       C  0.21713382  0.88593543  0.75015685     0.29060
C2562       C  0.21798136  0.88972784  0.71910088    -0.21760
C2563       C  0.22619866  0.91213461  0.70731603    -0.09810
C2564       C  0.23140958  0.93156091  0.72688183     0.29060
F2565       F  0.23921765  0.95347322  0.71588083    -0.20340
H2566       H  0.23518691  0.94279653  0.77283527     0.17430
H2567       H  0.21417640  0.87449587  0.70426474     0.17440
F2568       F  0.21112673  0.86334911  0.76085632    -0.20320
C2569       C  0.21738841  0.91845061  0.50601382    -0.21760
C2570       C  0.23245105  0.90079227  0.52006373    -0.09800
C2571       C  0.24872132  0.88704324  0.50239534     0.29060
C2572       C  0.25023747  0.89119284  0.97174604    -0.21760
C2573       C  0.23501228  0.90817296  0.95749546    -0.10450
C2574       C  0.21838036  0.92189278  0.97460757     0.29060
F2575       F  0.20402735  0.93911290  0.96125685    -0.20340
H2576       H  0.20492403  0.92940629  0.51926104     0.17430
H2577       H  0.26375648  0.88128603  0.95900851     0.17440
F2578       F  0.26405359  0.87017469  0.51479285    -0.20320
C2579       C  0.24672364  0.99171585  0.60189954    -0.21760
C2580       C  0.26330925  0.97709084  0.61785088    -0.09800
C2581       C  0.28021673  0.98829141  0.63742446     0.29060
C2582       C  0.27961474  0.01378187  0.64180979    -0.21760
C2583       C  0.26200452  0.02816724  0.62697051    -0.09810
C2584       C  0.24615727  0.01694517  0.60612257     0.29060
F2585       F  0.23001901  0.03039611  0.58962582    -0.20340
H2586       H  0.23370213  0.98345817  0.58661037     0.17430
H2587       H  0.29219440  0.02210644  0.65756894     0.17440
F2588       F  0.29608547  0.97447616  0.65382519    -0.20320
C2589       C  0.16546633  0.16345380  0.87857410    -0.21760
C2590       C  0.19048648  0.16953173  0.87885840    -0.09800
C2591       C  0.19722631  0.19417809  0.87374727     0.29060
C2592       C  0.17947846  0.21207688  0.86871848    -0.21760
C2593       C  0.15448557  0.20615488  0.86848100    -0.09810
C2594       C  0.14758820  0.18153732  0.87344540     0.29060
F2595       F  0.12366161  0.17490183  0.87358498    -0.20340
H2596       H  0.15970369  0.14469424  0.88239881     0.17430
H2597       H  0.18548506  0.23076405  0.86489538     0.17440
F2598       F  0.22104438  0.20123767  0.87346364    -0.20320
C2599       C  0.16649964  0.16011379  0.62769171    -0.21760
C2600       C  0.19119537  0.16564046  0.62169985    -0.09800
C2601       C  0.19724383  0.18922913  0.61108495     0.29060
C2602       C  0.17927642  0.20705331  0.60794523    -0.21760
C2603       C  0.15477315  0.20197049  0.61499743    -0.09810
C2604       C  0.14833519  0.17812526  0.62428880     0.29060
F2605       F  0.12480219  0.17247850  0.63114212    -0.20340
H2606       H  0.16133561  0.14207037  0.63578258     0.17430
H2607       H  0.18470731  0.22508972  0.60007612     0.17440
F2608       F  0.22061836  0.19537370  0.60401468    -0.20320
C2609       C  0.06437064  0.25070897  0.72771099    -0.21760
C2610       C  0.08329987  0.24298241  0.70867094    -0.09800
C2611       C  0.10492183  0.23348748  0.72124833     0.29060
C2612       C  0.10825681  0.23361081  0.75239979    -0.21760
C2613       C  0.08985213  0.24256017  0.77140122    -0.09810
C2614       C  0.06741881  0.25012657  0.75894992     0.29060
F2615       F  0.04936675  0.25907881  0.77674354    -0.20340
H2616       H  0.04771040  0.25834151  0.71830455     0.17430
H2617       H  0.12566859  0.22774768  0.76164211     0.17440
F2618       F  0.12375632  0.22646222  0.70335915    -0.20320
C2619       C  0.06730311  0.25657103  0.97882810    -0.21760
C2620       C  0.08482326  0.24706290  0.95902233    -0.09800
C2621       C  0.10559883  0.23512041  0.97070613     0.29060
C2622       C  0.10952838  0.23429606  0.50177096    -0.21760
C2623       C  0.09243938  0.24464380  0.52148191    -0.09810
C2624       C  0.07086589  0.25507210  0.50988436     0.29060
F2625       F  0.05422071  0.26558669  0.52844680    -0.20340
H2626       H  0.05130787  0.26602167  0.97017848     0.17430
H2627       H  0.12625978  0.22624792  0.51042667     0.17440
F2628       F  0.12305738  0.22610954  0.95208633    -0.20320
C2629       C  0.80361170  0.20627704  0.88486200    -0.21760
C2630       C  0.82796135  0.19937501  0.87880944    -0.09800
C2631       C  0.83281134  0.17494211  0.87104161     0.29060
C2632       C  0.81347710  0.15811995  0.86851705    -0.21760
C2633       C  0.78903305  0.16533524  0.87379304    -0.09810
C2634       C  0.78442765  0.18960064  0.88247022     0.29060
F2635       F  0.76137982  0.19742246  0.88852423    -0.20340
H2636       H  0.79924342  0.22486343  0.89144182     0.17430
H2637       H  0.81763394  0.13950739  0.86187522     0.17440
F2638       F  0.85597592  0.16749841  0.86499845    -0.20320
C2639       C  0.97831544  0.29455387  0.88434214    -0.21760
C2640       C  0.96591827  0.27450131  0.87161223    -0.09800
C2641       C  0.97942822  0.25764184  0.85437708     0.29060
C2642       C  0.00470822  0.25985111  0.85165603    -0.21760
C2643       C  0.01740236  0.27890854  0.86578073    -0.09810
C2644       C  0.00394780  0.29671203  0.88161500     0.29060
F2645       F  0.01564470  0.31519028  0.89599958    -0.20340
H2646       H  0.96830947  0.30800900  0.89725816     0.17430
H2647       H  0.01457545  0.24605488  0.83908268     0.17440
F2648       F  0.96822893  0.23885146  0.83994858    -0.20320
C2649       C  0.84067549  0.18498484  0.62543193    -0.21760
C2650       C  0.83320351  0.20967062  0.62302230    -0.09800
C2651       C  0.80840777  0.21485502  0.61766209     0.29060
C2652       C  0.79156356  0.19586554  0.61527775    -0.21760
C2653       C  0.79885072  0.17117914  0.61799626    -0.09810
C2654       C  0.82369714  0.16586111  0.62292863     0.29060
F2655       F  0.83158810  0.14234459  0.62559404    -0.20340
H2656       H  0.85966872  0.18043491  0.62963194     0.17430
H2657       H  0.77262263  0.20067501  0.61113853     0.17440
F2658       F  0.80024470  0.23826848  0.61473624    -0.20320
C2659       C  0.91878328  0.24978218  0.73360497    -0.21760
C2660       C  0.89764147  0.23993255  0.72047143    -0.09800
C2661       C  0.88009408  0.22859999  0.73908330     0.29060
C2662       C  0.88302261  0.22848852  0.77040923    -0.21760
C2663       C  0.90309257  0.24030514  0.78366213    -0.09810
C2664       C  0.92136197  0.25032375  0.76494431     0.29060
F2665       F  0.94108811  0.26177283  0.77699771    -0.20340
H2666       H  0.93241968  0.25876284  0.71971093     0.17430
H2667       H  0.86864222  0.22085795  0.78436546     0.17440
F2668       F  0.85955744  0.21867469  0.72703877    -0.20320
C2669       C  0.89692434  0.23075582  0.52279491    -0.21760
C2670       C  0.90247297  0.25458678  0.53297861    -0.09800
C2671       C  0.90510568  0.27355351  0.51152887     0.29060
C2672       C  0.90143665  0.26887377  0.98100972    -0.21760
C2673       C  0.89511656  0.24536181  0.97116076    -0.09810
C2674       C  0.89321517  0.22616872  0.99209836     0.29060
F2675       F  0.88699806  0.20329772  0.98299764    -0.20340
H2676       H  0.89474276  0.21577788  0.53867880     0.17430
H2677       H  0.90272901  0.28390565  0.96501542     0.17440
F2678       F  0.91006161  0.29690538  0.51998292    -0.20320
C2679       C  0.98387760  0.29943692  0.63314504    -0.21760
C2680       C  0.97005871  0.28089463  0.61949664    -0.09800
C2681       C  0.98191813  0.26370324  0.60096132     0.29060
C2682       C  0.00718798  0.26380838  0.59828995    -0.21760
C2683       C  0.02119608  0.28112251  0.61362624    -0.09810
C2684       C  0.00943138  0.29955874  0.63029905     0.29060
F2685       F  0.02265323  0.31643570  0.64563498    -0.20340
H2686       H  0.97504349  0.31306767  0.64703456     0.17430
H2687       H  0.01595399  0.24968390  0.58504947     0.17440
F2688       F  0.96914479  0.24644199  0.58563739    -0.20320
C2689       C  0.65971468  0.80712701  0.82531763    -0.21760
C2690       C  0.65949748  0.81026848  0.79391292    -0.09800
C2691       C  0.67813209  0.82406045  0.78010069     0.29060
C2692       C  0.69536101  0.83616619  0.79764892    -0.21760
C2693       C  0.69458266  0.83447350  0.82915235    -0.09810
C2694       C  0.67739994  0.81886680  0.84287847     0.29060
F2695       F  0.67641272  0.81658109  0.87325585    -0.20340
H2696       H  0.64575507  0.79618263  0.83629736     0.17430
H2697       H  0.70845386  0.84815692  0.78666044     0.17440
F2698       F  0.67855873  0.82754050  0.74982726    -0.20320
C2699       C  0.63713539  0.87970654  0.67741290    -0.21760
C2700       C  0.66023497  0.87117432  0.66777515    -0.09800
C2701       C  0.66543060  0.84599887  0.67148690     0.29060
C2702       C  0.64838538  0.82997641  0.68284365    -0.21760
C2703       C  0.62576416  0.83797314  0.69336627    -0.09810
C2704       C  0.62016189  0.86323197  0.69108074     0.29060
F2705       F  0.59858781  0.87183638  0.70174178    -0.20340
H2706       H  0.63266323  0.89898796  0.67543877     0.17430
H2707       H  0.65383956  0.81094243  0.68482174     0.17440
F2708       F  0.68736832  0.83607054  0.66467122    -0.20320
C2709       C  0.59287588  0.74111465  0.88789969    -0.21760
C2710       C  0.57428002  0.75381191  0.90321816    -0.09800
C2711       C  0.55594668  0.76560975  0.88631687     0.29060
C2712       C  0.55694460  0.76571678  0.85480725    -0.21760
C2713       C  0.57613870  0.75398712  0.83949152    -0.09810
C2714       C  0.59392697  0.74129310  0.85633400     0.29060
F2715       F  0.61337130  0.73080919  0.84243883    -0.20340
H2716       H  0.60740972  0.73218374  0.90043517     0.17430
H2717       H  0.54303676  0.77561821  0.84229119     0.17440
F2718       F  0.53724295  0.77730294  0.90026648    -0.20320
C2719       C  0.61628018  0.72486357  0.60531772    -0.21760
C2720       C  0.59541199  0.73078365  0.58838784    -0.09800
C2721       C  0.57341567  0.73586885  0.60382965     0.29060
C2722       C  0.57314063  0.73720938  0.63549703    -0.21760
C2723       C  0.59472035  0.73343866  0.65211780    -0.09810
C2724       C  0.61598856  0.72604955  0.63666482     0.29060
F2725       F  0.63709267  0.72136747  0.65181067    -0.20340
H2726       H  0.63335574  0.72053906  0.59417764     0.17430
H2727       H  0.55657978  0.74299678  0.64677622     0.17440
F2728       F  0.55275742  0.74165153  0.58837046    -0.20320
C2729       C  0.63964153  0.84661957  0.53636771    -0.21760
C2730       C  0.62810815  0.82781015  0.55275678    -0.09800
C2731       C  0.63772160  0.82133541  0.58118142     0.29060
C2732       C  0.65927829  0.83200382  0.59171580    -0.21760
C2733       C  0.67156277  0.84999423  0.57482009    -0.09810
C2734       C  0.66110577  0.85765859  0.54720814     0.29060
F2735       F  0.67190332  0.87535876  0.53021984    -0.20340
H2736       H  0.63302928  0.85162702  0.51418591     0.17430
H2737       H  0.66633314  0.82605371  0.61327337     0.17440
F2738       F  0.62704112  0.80348934  0.59810336    -0.20320
C2739       C  0.66760864  0.83272110  0.96841548    -0.21760
C2740       C  0.64781029  0.82279799  0.95258146    -0.09800
C2741       C  0.64023335  0.83443993  0.92563825     0.29060
C2742       C  0.65300457  0.85479086  0.91433075    -0.21760
C2743       C  0.67343240  0.86406444  0.92964824    -0.09810
C2744       C  0.68003859  0.85323963  0.95747231     0.29060
F2745       F  0.69935421  0.86171618  0.97359136    -0.20340
H2746       H  0.67341962  0.82474077  0.98962775     0.17430
H2747       H  0.64776319  0.86233954  0.89266433     0.17440
F2748       F  0.62089446  0.82584195  0.90969553    -0.20320
C2749       C  0.47867077  0.76354230  0.72875625    -0.21760
C2750       C  0.46672461  0.77822320  0.75001436    -0.09800
C2751       C  0.48020216  0.79589700  0.76584316     0.29060
C2752       C  0.50560665  0.79766140  0.76163453    -0.21760
C2753       C  0.51762377  0.78195068  0.74149086    -0.09810
C2754       C  0.50383624  0.76539700  0.72444629     0.29060
F2755       F  0.51492580  0.75034572  0.70441344    -0.20340
H2756       H  0.46848284  0.75028896  0.71569867     0.17430
H2757       H  0.51607997  0.81012787  0.77548202     0.17440
F2758       F  0.46914477  0.81020530  0.78667701    -0.20320
C2759       C  0.32119120  0.84745377  0.67718451    -0.21760
C2760       C  0.29716179  0.84004765  0.67184501    -0.09800
C2761       C  0.28859148  0.81762876  0.68336157     0.29060
C2762       C  0.30421938  0.80296255  0.70089719    -0.21760
C2763       C  0.32853891  0.81030460  0.70549919    -0.09810
C2764       C  0.33698519  0.83247544  0.69318346     0.29060
F2765       F  0.36038901  0.84007011  0.69749013    -0.20340
H2766       H  0.32781683  0.86486835  0.66861503     0.17430
H2767       H  0.29758704  0.78588569  0.71041378     0.17440
F2768       F  0.26524392  0.81032351  0.67818671    -0.20320
C2769       C  0.34704320  0.85557653  0.77596318    -0.21760
C2770       C  0.36280794  0.84312547  0.79589626    -0.09800
C2771       C  0.36255873  0.84959302  0.82641459     0.29060
C2772       C  0.34556012  0.86680988  0.83698584    -0.21760
C2773       C  0.32764201  0.87678782  0.81763694    -0.09810
C2774       C  0.32928894  0.87185849  0.78669791     0.29060
F2775       F  0.31244330  0.88107772  0.76720865    -0.20340
H2776       H  0.34662841  0.85068816  0.75243969     0.17430
H2777       H  0.34473301  0.87022728  0.86093947     0.17440
F2778       F  0.37743801  0.83790915  0.84632910    -0.20320
C2779       C  0.37826898  0.73339545  0.87409801    -0.21760
C2780       C  0.39608900  0.74317064  0.85476015    -0.09800
C2781       C  0.41776523  0.75275651  0.86700139     0.29060
C2782       C  0.42064264  0.75412561  0.89826455    -0.21760
C2783       C  0.40233159  0.74522637  0.91761233    -0.09810
C2784       C  0.38145742  0.73407493  0.90525668     0.29060
F2785       F  0.36314050  0.72580450  0.92326841    -0.20340
H2786       H  0.36140176  0.72605194  0.86504123     0.17430
H2787       H  0.43674929  0.76295349  0.90738808     0.17440
F2788       F  0.43518893  0.76262055  0.84885467    -0.20320
C2789       C  0.37226340  0.74516379  0.65622140    -0.21760
C2790       C  0.39607943  0.74266761  0.66732261    -0.09800
C2791       C  0.41542651  0.73827838  0.64741879     0.29060
C2792       C  0.41096159  0.73732431  0.61640569    -0.21760
C2793       C  0.38722762  0.74130494  0.60496628    -0.09810
C2794       C  0.36777365  0.74465754  0.62537634     0.29060
F2795       F  0.34455009  0.74867789  0.61565547    -0.20340
H2796       H  0.35725788  0.74893383  0.67144801     0.17430
H2797       H  0.42627599  0.73475791  0.60130197     0.17440
F2798       F  0.43863794  0.73583097  0.65788315    -0.20320
C2799       C  0.47782665  0.79671086  0.00943457    -0.21760
C2800       C  0.46524989  0.77540635  0.01843666    -0.09800
C2801       C  0.47885064  0.75474202  0.52767486     0.29060
C2802       C  0.50425787  0.75464812  0.52514654    -0.21760
C2803       C  0.51671248  0.77516916  0.01378404    -0.09810
C2804       C  0.50343174  0.79665531  0.00714618     0.29060
F2805       F  0.51491140  0.81682332  0.99601484    -0.20340
H2806       H  0.46779226  0.81283692  0.00219806     0.17430
H2807       H  0.51418437  0.73807052  0.53095333     0.17440
F2808       F  0.46754234  0.73412017  0.53780679    -0.20320
C2809       C  0.30600794  0.81668078  0.96029267    -0.21760
C2810       C  0.32898498  0.80884189  0.94989182    -0.09800
C2811       C  0.33542327  0.81334915  0.91964247     0.29060
C2812       C  0.31998726  0.82713179  0.90116148    -0.21760
C2813       C  0.29821501  0.83684128  0.91255531    -0.09810
C2814       C  0.29068870  0.83057332  0.94172455     0.29060
F2815       F  0.26859177  0.83784082  0.95220895    -0.20340
H2816       H  0.30026798  0.81291414  0.98317496     0.17430
H2817       H  0.32568181  0.83134008  0.87839646     0.17440
F2818       F  0.35702271  0.80541492  0.90818237    -0.20320
C2819       C  0.34443736  0.86244077  0.59442526    -0.21760
C2820       C  0.32810537  0.87541422  0.57575308    -0.09800
C2821       C  0.33107680  0.87382936  0.54437270     0.29060
C2822       C  0.34845737  0.85780668  0.53212224    -0.21760
C2823       C  0.36254607  0.84248979  0.55090636    -0.09810
C2824       C  0.36115268  0.84572519  0.58221263     0.29060
F2825       F  0.37429332  0.83108823  0.60104050    -0.20340
H2826       H  0.34240709  0.86309575  0.61858777     0.17430
H2827       H  0.34885840  0.85534953  0.50795298     0.17440
F2828       F  0.31568833  0.88607752  0.52557894    -0.20320
C2829       C  0.82509361  0.34288254  0.79078462    -0.21760
C2830       C  0.79983392  0.34170766  0.79437675    -0.09800
C2831       C  0.78903583  0.32215700  0.81009450     0.29060
C2832       C  0.80391134  0.30460791  0.82403145    -0.21760
C2833       C  0.82942333  0.30612935  0.82106943    -0.09810
C2834       C  0.83987703  0.32513206  0.80369727     0.29060
F2835       F  0.86449326  0.32768419  0.80095373    -0.20340
H2836       H  0.83336496  0.35757287  0.77775673     0.17430
H2837       H  0.79567211  0.29022811  0.83754608     0.17440
F2838       F  0.76433483  0.32037362  0.81231078    -0.20320
C2839       C  0.84339340  0.37989615  0.68714217    -0.21760
C2840       C  0.82101076  0.36942494  0.69652507    -0.09800
C2841       C  0.81893861  0.34381768  0.69705120     0.29060
C2842       C  0.83849149  0.32913506  0.68959612    -0.21760
C2843       C  0.86046467  0.33891858  0.67842887    -0.09810
C2844       C  0.86279166  0.36468377  0.67698899     0.29060
F2845       F  0.88364564  0.37500543  0.66633321    -0.20340
H2846       H  0.84558278  0.39962296  0.68693685     0.17430
H2847       H  0.83554981  0.30959328  0.69134335     0.17440
F2848       F  0.79790946  0.33245089  0.70527170    -0.20320
C2849       C  0.72075032  0.40890607  0.85591467    -0.21760
C2850       C  0.73768681  0.42231372  0.83871623    -0.09800
C2851       C  0.75436097  0.43769707  0.85398629     0.29060
C2852       C  0.75517294  0.43820130  0.88546877    -0.21760
C2853       C  0.73921648  0.42375981  0.90274948    -0.09810
C2854       C  0.72142749  0.40958421  0.88755644     0.29060
F2855       F  0.70563144  0.39512431  0.90315540    -0.20340
H2856       H  0.70782959  0.39685045  0.84493540     0.17430
H2857       H  0.76880479  0.44951228  0.89635159     0.17440
F2858       F  0.77052375  0.45183890  0.83850409    -0.20320
C2859       C  0.73299032  0.37610689  0.60340103    -0.21760
C2860       C  0.72249548  0.39545571  0.58711718    -0.09800
C2861       C  0.71258625  0.41543316  0.60315794     0.29060
C2862       C  0.71322642  0.41561796  0.63498125    -0.21760
C2863       C  0.72391147  0.39600622  0.65105216    -0.09810
C2864       C  0.73402742  0.37638298  0.63450099     0.29060
F2865       F  0.74600253  0.35748898  0.64808984    -0.20340
H2866       H  0.74146137  0.36079806  0.59198995     0.17430
H2867       H  0.70552953  0.43102875  0.64695642     0.17440
F2868       F  0.70237083  0.43465690  0.58822918    -0.20320
C2869       C  0.82035118  0.34474883  0.53801361    -0.21760
C2870       C  0.81542978  0.36758799  0.55124525    -0.09800
C2871       C  0.81924524  0.36985768  0.58243492     0.29060
C2872       C  0.82916822  0.35019658  0.59914524    -0.21760
C2873       C  0.83506831  0.32795386  0.58498945    -0.09810
C2874       C  0.83073443  0.32554334  0.55420978     0.29060
F2875       F  0.83599835  0.30425171  0.53989182    -0.20340
H2876       H  0.81468134  0.34083330  0.51536064     0.17430
H2877       H  0.83270636  0.35250475  0.62292611     0.17440
F2878       F  0.81239906  0.39061218  0.59685192    -0.20320
C2879       C  0.85622501  0.34135943  0.94612055    -0.21760
C2880       C  0.85408566  0.33399648  0.91612361    -0.09800
C2881       C  0.83228353  0.33988815  0.90069952     0.29060
C2882       C  0.81191534  0.34916022  0.91608715    -0.21760
C2883       C  0.81339131  0.35442699  0.94680005    -0.09810
C2884       C  0.83667480  0.35308762  0.96054904     0.29060
F2885       F  0.84122759  0.36474199  0.98672530    -0.20340
H2886       H  0.87304785  0.33798250  0.95836790     0.17430
H2887       H  0.79503036  0.35244879  0.90391840     0.17440
F2888       F  0.83022664  0.33588627  0.87094351    -0.20320
C2889       C  0.66462083  0.66266188  0.75811535    -0.21760
C2890       C  0.68951531  0.66844870  0.75424979    -0.09800
C2891       C  0.69599619  0.69297545  0.74804959     0.29060
C2892       C  0.67815946  0.71113566  0.74637673    -0.21760
C2893       C  0.65329783  0.70555759  0.75045542    -0.09810
C2894       C  0.64661163  0.68100184  0.75617431     0.29060
F2895       F  0.62280779  0.67468931  0.76008173    -0.20340
H2896       H  0.65909754  0.64398454  0.76297803     0.17430
H2897       H  0.68397152  0.72971496  0.74142854     0.17440
F2898       F  0.71963557  0.69963499  0.74338501    -0.20320
C2899       C  0.74218866  0.49108724  0.76286206    -0.21760
C2900       C  0.76014214  0.47909844  0.74571103    -0.09800
C2901       C  0.77979570  0.49285248  0.73410778     0.29060
C2902       C  0.78042844  0.51840478  0.73818909    -0.21760
C2903       C  0.76160920  0.53029254  0.75405808    -0.09810
C2904       C  0.74289861  0.51626150  0.76706616     0.29060
F2905       F  0.72492245  0.52700248  0.78345096    -0.20340
H2906       H  0.72733275  0.48093030  0.77317023     0.17430
H2907       H  0.79491646  0.52900572  0.72777523     0.17440
F2908       F  0.79771412  0.48185747  0.71794893    -0.20320
C2909       C  0.82829378  0.69980935  0.70005071    -0.21760
C2910       C  0.82484056  0.69973441  0.66871579    -0.09800
C2911       C  0.80488529  0.68689602  0.65651078     0.29060
C2912       C  0.79013318  0.67257583  0.67519053    -0.21760
C2913       C  0.79472732  0.67131286  0.70620945    -0.09810
C2914       C  0.81327287  0.68581434  0.71875566     0.29060
F2915       F  0.81834820  0.68472187  0.74863697    -0.20340
H2916       H  0.84341555  0.70975494  0.70996819     0.17430
H2917       H  0.77578846  0.66155242  0.66524937     0.17440
F2918       F  0.80074574  0.68657478  0.62639728    -0.20320
C2919       C  0.81423110  0.65911194  0.81474620    -0.21760
C2920       C  0.82185180  0.63690753  0.80224904    -0.09800
C2921       C  0.84719912  0.63203727  0.80068379     0.29060
C2922       C  0.86422603  0.64915731  0.81253189    -0.21760
C2923       C  0.85597014  0.67178271  0.82397062    -0.09810
C2924       C  0.83074000  0.67652077  0.82400330     0.29060
F2925       F  0.82152128  0.69857224  0.83189519    -0.20340
H2926       H  0.79508526  0.66409572  0.81566140     0.17430
H2927       H  0.88362456  0.64521130  0.81172672     0.17440
F2928       F  0.85537536  0.61103213  0.78798279    -0.20320
C2929       C  0.66471047  0.66025604  0.99921029    -0.21760
C2930       C  0.68932366  0.66705081  0.99538708    -0.09800
C2931       C  0.69468733  0.69064492  0.98419637     0.29060
C2932       C  0.67594743  0.70760737  0.97946218    -0.21760
C2933       C  0.65149290  0.70151810  0.98577749    -0.09810
C2934       C  0.64591459  0.67727433  0.99448149     0.29060
F2935       F  0.62254290  0.67037237  0.00039673    -0.20340
H2936       H  0.66001532  0.64205926  0.00721909     0.17430
H2937       H  0.68079515  0.72599582  0.97229786     0.17440
F2938       F  0.71808804  0.69769711  0.97869771    -0.20320
C2939       C  0.71672929  0.62048322  0.86913353    -0.21760
C2940       C  0.72438334  0.60166667  0.84988945    -0.09800
C2941       C  0.73311171  0.57955863  0.86235254     0.29060
C2942       C  0.73603849  0.57726822  0.89356007    -0.21760
C2943       C  0.72951732  0.59664091  0.91258088    -0.09810
C2944       C  0.71903893  0.61795034  0.90023725     0.29060
F2945       F  0.71316923  0.63722146  0.91804543    -0.20340
H2946       H  0.71015896  0.63773085  0.85995756     0.17430
H2947       H  0.74420080  0.56075808  0.90281700     0.17440
F2948       F  0.74085222  0.56111050  0.84434204    -0.20320
C2949       C  0.71681721  0.62208517  0.61916230    -0.21760
C2950       C  0.72635867  0.60443753  0.59958492    -0.09800
C2951       C  0.73652879  0.58276086  0.61149035     0.29060
C2952       C  0.73867754  0.57969948  0.64261264    -0.21760
C2953       C  0.73002175  0.59781195  0.66217178    -0.09810
C2954       C  0.71827459  0.61866653  0.65027966     0.29060
F2955       F  0.71010563  0.63668920  0.66866185    -0.20340
H2956       H  0.70907725  0.63895206  0.61032663     0.17430
H2957       H  0.74788722  0.56359376  0.65145293     0.17440
F2958       F  0.74628087  0.56555140  0.59309099    -0.20320
C2959       C  0.74040618  0.51884937  0.02195031    -0.21760
C2960       C  0.76134925  0.53173912  0.01256301    -0.09800
C2961       C  0.78274010  0.51848003  0.50585194     0.29060
C2962       C  0.78232743  0.49274217  0.50608423    -0.21760
C2963       C  0.76061282  0.48002936  0.51284005    -0.09810
C2964       C  0.73995671  0.49332499  0.02201156     0.29060
F2965       F  0.71891831  0.48166088  0.02976950    -0.20340
H2966       H  0.72384348  0.52857418  0.02796422     0.17430
H2967       H  0.79845653  0.48281920  0.49893379     0.17440
F2968       F  0.80338728  0.53022395  0.49686358    -0.20320
C2969       C  0.81647080  0.68460886  0.96921739    -0.21760
C2970       C  0.79745459  0.67175281  0.95514485    -0.09800
C2971       C  0.79318557  0.67525253  0.92432618     0.29060
C2972       C  0.80861952  0.69047247  0.90754225    -0.21760
C2973       C  0.82895739  0.70174096  0.92106763    -0.09810
C2974       C  0.83235567  0.69922392  0.95233253     0.29060
F2975       F  0.85150691  0.71010073  0.96642782    -0.20340
H2976       H  0.81990040  0.68221092  0.99306769     0.17430
H2977       H  0.80539481  0.69226956  0.88365594     0.17440
F2978       F  0.77444920  0.66356486  0.91039137    -0.20320
C2979       C  0.84391097  0.64319408  0.53179877    -0.21760
C2980       C  0.82628459  0.63234042  0.55073942    -0.09800
C2981       C  0.82821007  0.63581350  0.58196449     0.29060
C2982       C  0.84609688  0.65150816  0.59358781    -0.21760
C2983       C  0.86164703  0.66476896  0.57423875    -0.09810
C2984       C  0.86108193  0.65975127  0.54331464     0.29060
F2985       F  0.87572784  0.67234416  0.52402013    -0.20340
H2986       H  0.84269112  0.64103588  0.50763323     0.17430
H2987       H  0.84592488  0.65538149  0.61747222     0.17440
F2988       F  0.81148997  0.62578422  0.60096665    -0.20320
C2989       C  0.18106991  0.69077434  0.78571512    -0.21760
C2990       C  0.19317824  0.67040481  0.79817884    -0.09800
C2991       C  0.19273091  0.66666534  0.82956995     0.29060
C2992       C  0.17836068  0.68169680  0.84763084    -0.21760
C2993       C  0.16412875  0.70027928  0.83453857    -0.09810
C2994       C  0.16642346  0.70551837  0.80372297     0.29060
F2995       F  0.15336072  0.72397176  0.79078387    -0.20340
H2996       H  0.18139558  0.69420840  0.76168808     0.17430
H2997       H  0.17680409  0.67752626  0.87142770     0.17440
F2998       F  0.20495026  0.64766798  0.84258544    -0.20320
C2999       C  0.15181874  0.63446151  0.66998135    -0.21760
C3000       C  0.15638266  0.63462995  0.70106052    -0.09800
C3001       C  0.14169988  0.64954821  0.71949275     0.29060
C3002       C  0.12462263  0.66572622  0.70666384    -0.21760
C3003       C  0.12132391  0.66691464  0.67532898    -0.09810
C3004       C  0.13411183  0.65004716  0.65723360     0.29060
F3005       F  0.13169498  0.65061409  0.62684361    -0.20340
H3006       H  0.16307892  0.62339009  0.65532393     0.17430
H3007       H  0.11529463  0.67866195  0.72108065     0.17440
F3008       F  0.14591772  0.65073249  0.74955299    -0.20320
C3009       C  0.31982406  0.66109777  0.74601655    -0.21760
C3010       C  0.29482875  0.66687830  0.74888997    -0.09800
C3011       C  0.28833867  0.69063790  0.75835106     0.29060
C3012       C  0.30623536  0.70820697  0.76372986    -0.21760
C3013       C  0.33115649  0.70279787  0.76012671    -0.09810
C3014       C  0.33789388  0.67887609  0.75158138     0.29060
F3015       F  0.36177260  0.67286146  0.74769275    -0.20340
H3016       H  0.32537229  0.64297254  0.73890247     0.17430
H3017       H  0.30041729  0.72629879  0.77067733     0.17440
F3018       F  0.26459910  0.69714488  0.76248237    -0.20320
C3019       C  0.19230242  0.67156456  0.57448418    -0.21760
C3020       C  0.19022231  0.67259888  0.54302878    -0.09800
C3021       C  0.17404864  0.68954893  0.52969668     0.29060
C3022       C  0.15842207  0.70329331  0.54772449    -0.21760
C3023       C  0.15914677  0.70074077  0.57913601    -0.09810
C3024       C  0.17703234  0.68567174  0.59249982     0.29060
F3025       F  0.17834920  0.68286766  0.62283379    -0.20340
H3026       H  0.20484319  0.65879914  0.58516935     0.17430
H3027       H  0.14496339  0.71510181  0.53708607     0.17440
F3028       F  0.17178671  0.69133812  0.49934385    -0.20320
C3029       C  0.13985750  0.64594147  0.97072437    -0.21760
C3030       C  0.15464580  0.63147542  0.95196907    -0.09800
C3031       C  0.15049591  0.63213563  0.92078046     0.29060
C3032       C  0.13353332  0.64865428  0.90850604    -0.21760
C3033       C  0.12111944  0.66541468  0.92699862    -0.09810
C3034       C  0.12355281  0.66311815  0.95838995     0.29060
F3035       F  0.11187257  0.67891357  0.97699597    -0.20340
H3036       H  0.14290295  0.64598363  0.99481709     0.17430
H3037       H  0.13220937  0.65015552  0.88424141     0.17440
F3038       F  0.16440122  0.61842089  0.90199856    -0.20320
C3039       C  0.28546276  0.69194552  0.49734788    -0.21760
C3040       C  0.29268879  0.66761315  0.99211100    -0.09800
C3041       C  0.31784364  0.66196049  0.99220560     0.29060
C3042       C  0.33519457  0.68042236  0.99752880    -0.21760
C3043       C  0.32778266  0.70475690  0.00275004    -0.09810
C3044       C  0.30261632  0.71024798  0.50258533     0.29060
F3045       F  0.29432140  0.73327656  0.50798198    -0.20340
H3046       H  0.26629081  0.69697617  0.49764845     0.17430
H3047       H  0.35443982  0.67568358  0.99746639     0.17440
F3048       F  0.32571755  0.63875993  0.98705325    -0.20320
C3049       C  0.26861334  0.61585096  0.87879641    -0.21760
C3050       C  0.25582344  0.59978163  0.89783636    -0.09800
C3051       C  0.24350388  0.57960127  0.88563434     0.29060
C3052       C  0.24236983  0.57674352  0.85448054    -0.21760
C3053       C  0.25402869  0.59359600  0.83522960    -0.09810
C3054       C  0.26810713  0.61258644  0.84766073     0.29060
F3055       F  0.27941686  0.62932696  0.82972137    -0.20340
H3056       H  0.27806928  0.63156824  0.88800552     0.17430
H3057       H  0.23131046  0.56209177  0.84534998     0.17440
F3058       F  0.23063229  0.56407722  0.90362801    -0.20320
C3059       C  0.26457859  0.61976831  0.59696337    -0.21760
C3060       C  0.25590720  0.59759450  0.58533478    -0.09800
C3061       C  0.25012606  0.57821635  0.60502585     0.29060
C3062       C  0.25175488  0.58151737  0.63611508    -0.21760
C3063       C  0.25835885  0.60442596  0.64782037    -0.09810
C3064       C  0.26548871  0.62334392  0.62801930     0.29060
F3065       F  0.27218370  0.64563889  0.63866037    -0.20340
H3066       H  0.26880387  0.63496011  0.58201197     0.17430
H3067       H  0.24608293  0.56677344  0.65099761     0.17440
F3068       F  0.24174773  0.55656963  0.59417997    -0.20320
C3069       C  0.14913094  0.33098694  0.68210988    -0.21760
C3070       C  0.15707795  0.30750851  0.67447908    -0.09800
C3071       C  0.18030649  0.29931681  0.68352302     0.29060
C3072       C  0.19549465  0.31506272  0.70001826    -0.21760
C3073       C  0.18804161  0.33934558  0.70509445    -0.09810
C3074       C  0.16507569  0.34734026  0.69518746     0.29060
F3075       F  0.15813511  0.37114643  0.69775184    -0.20340
H3076       H  0.13114037  0.33742545  0.67540315     0.17430
H3077       H  0.21318807  0.30872207  0.70782920     0.17440
F3078       F  0.18792956  0.27628958  0.67694058    -0.20320
C3079       C  0.12257120  0.34953027  0.79332157    -0.21760
C3080       C  0.12205915  0.34521121  0.82443414    -0.09800
C3081       C  0.13767729  0.35914272  0.84293073     0.29060
C3082       C  0.15559247  0.37446130  0.83012357    -0.21760
C3083       C  0.15751146  0.37715108  0.79872976    -0.09810
C3084       C  0.13960638  0.36582092  0.78066899     0.29060
F3085       F  0.14014555  0.36827229  0.75042177    -0.20340
H3086       H  0.11083996  0.33902513  0.77856636     0.17430
H3087       H  0.16901268  0.38293267  0.84468432     0.17440
F3088       F  0.13762691  0.35575568  0.87319793    -0.20320
C3089       C  0.22656361  0.49299433  0.77496069    -0.21760
C3090       C  0.22009637  0.47897723  0.74996945    -0.09800
C3091       C  0.21285214  0.49084115  0.72317171     0.29060
C3092       C  0.21282891  0.51654340  0.72125701    -0.21760
C3093       C  0.22015111  0.53050422  0.74602618    -0.09810
C3094       C  0.22646895  0.51857571  0.77309421     0.29060
F3095       F  0.23318705  0.53174944  0.79753612    -0.20340
H3096       H  0.23237177  0.48409438  0.79562900     0.17430
H3097       H  0.20818753  0.52547297  0.70017001     0.17440
F3098       F  0.20722451  0.47755112  0.69840813    -0.20320
C3099       C  0.19257947  0.33800011  0.92502254    -0.21760
C3100       C  0.18845345  0.33867776  0.95612821    -0.09800
C3101       C  0.17064385  0.32334021  0.96901255     0.29060
C3102       C  0.15573639  0.30915161  0.95056635    -0.21760
C3103       C  0.15868273  0.30976683  0.91917294    -0.09810
C3104       C  0.17806722  0.32337117  0.90661863     0.29060
F3105       F  0.18179389  0.32415364  0.87643474    -0.20340
H3106       H  0.20639304  0.34962663  0.91483196     0.17430
H3107       H  0.14110388  0.29857935  0.96074104     0.17440
F3108       F  0.16617694  0.32370363  0.99905042    -0.20320
C3109       C  0.12285035  0.35090868  0.54938295    -0.21760
C3110       C  0.12610458  0.34306770  0.57926914    -0.09800
C3111       C  0.14436848  0.35429460  0.59659415     0.29060
C3112       C  0.16006047  0.37164356  0.58404889    -0.21760
C3113       C  0.15840579  0.37790194  0.55352538    -0.09810
C3114       C  0.13862057  0.36854020  0.53664990     0.29060
F3115       F  0.13612306  0.37426299  0.50705426    -0.20340
H3116       H  0.10918593  0.34223341  0.53537576     0.17430
H3117       H  0.17519934  0.37822567  0.59754183     0.17440
F3118       F  0.14960908  0.34586244  0.62436862    -0.20320
C3119       C  0.27396348  0.40272018  0.86704284    -0.21760
C3120       C  0.25476560  0.40981427  0.84800594    -0.09800
C3121       C  0.23386867  0.42086630  0.85998488     0.29060
C3122       C  0.23165531  0.42376835  0.89091823    -0.21760
C3123       C  0.25020969  0.41555281  0.91051434    -0.09810
C3124       C  0.27188638  0.40581679  0.89820587     0.29060
F3125       F  0.29048274  0.39815328  0.91620080    -0.20340
H3126       H  0.29009738  0.39399145  0.85787290     0.17430
H3127       H  0.21479177  0.43141651  0.89955956     0.17440
F3128       F  0.21483367  0.42723902  0.84186811    -0.20320
C3129       C  0.24955953  0.43006245  0.61018086    -0.21760
C3130       C  0.25999237  0.40872639  0.59828173    -0.09800
C3131       C  0.27021421  0.39116942  0.61789510     0.29060
C3132       C  0.26854674  0.39422139  0.64901124    -0.21760
C3133       C  0.25602061  0.41440505  0.66089325    -0.09810
C3134       C  0.24723229  0.43275282  0.64131215     0.29060
F3135       F  0.23539647  0.45267132  0.65223865    -0.20340
H3136       H  0.24141961  0.44367562  0.59538781     0.17430
H3137       H  0.27534827  0.37986136  0.66376782     0.17440
F3138       F  0.28057231  0.37043096  0.60694628    -0.20320
C3139       C  0.20770384  0.49297869  0.52175995    -0.21760
C3140       C  0.21976751  0.47958343  0.99942403    -0.09800
C3141       C  0.23021349  0.49197749  0.97475272     0.29060
C3142       C  0.22991489  0.51749964  0.97336282    -0.21760
C3143       C  0.21886873  0.53099313  0.99627065    -0.09810
C3144       C  0.20735057  0.51867454  0.52029937     0.29060
F3145       F  0.19741498  0.53150482  0.54333559    -0.20340
H3146       H  0.19969019  0.48364256  0.54094386     0.17430
H3147       H  0.23888348  0.52680047  0.95479449     0.17440
F3148       F  0.24105861  0.47931769  0.95218138    -0.20320
C3149       C  0.67900052  0.18877525  0.70821369    -0.21760
C3150       C  0.65716302  0.19803956  0.69594024    -0.09800
C3151       C  0.65344906  0.19694766  0.66460472     0.29060
C3152       C  0.67060175  0.18517790  0.64637108    -0.21760
C3153       C  0.69117534  0.17391692  0.65927044    -0.09810
C3154       C  0.69576195  0.17659788  0.69012015     0.29060
F3155       F  0.71579881  0.16618951  0.70301739    -0.20340
H3156       H  0.68247928  0.18963458  0.73217960     0.17430
H3157       H  0.66689871  0.18328703  0.62258342     0.17440
F3158       F  0.63291550  0.20636264  0.65176012    -0.20320
C3159       C  0.63600189  0.14077017  0.84205544    -0.21760
C3160       C  0.65239827  0.12727357  0.82424006    -0.09800
C3161       C  0.65089913  0.12963484  0.79276546     0.29060
C3162       C  0.63504008  0.14686254  0.77969229    -0.21760
C3163       C  0.62112811  0.16266224  0.79777088    -0.09810
C3164       C  0.62097984  0.15884684  0.82904775     0.29060
F3165       F  0.60773932  0.17378642  0.84711063    -0.20340
H3166       H  0.63688051  0.13937374  0.86633473     0.17430
H3167       H  0.63568673  0.14968083  0.75554585     0.17440
F3168       F  0.66654740  0.11707928  0.77483724    -0.20320
C3169       C  0.67743950  0.29758737  0.74099708    -0.21760
C3170       C  0.65318231  0.30254211  0.74910365    -0.09800
C3171       C  0.64673941  0.32676399  0.75695009     0.29060
C3172       C  0.66450205  0.34536419  0.75715565    -0.21760
C3173       C  0.68892154  0.34006914  0.74991702    -0.09810
C3174       C  0.69507372  0.31598636  0.74130968     0.29060
F3175       F  0.71811563  0.31015438  0.73246832    -0.20340
H3176       H  0.68292034  0.27926346  0.73456089     0.17430
H3177       H  0.65926208  0.36378897  0.76344771     0.17440
F3178       F  0.62354077  0.33237210  0.76533194    -0.20320
C3179       C  0.63776042  0.16342820  0.95584620    -0.21760
C3180       C  0.62673477  0.18291987  0.94019506    -0.09800
C3181       C  0.63598721  0.18957765  0.91171093     0.29060
C3182       C  0.65692760  0.17831203  0.90037045    -0.21760
C3183       C  0.66892939  0.15980213  0.91679084    -0.09810
C3184       C  0.65871930  0.15202497  0.94444295     0.29060
F3185       F  0.66932888  0.13392261  0.96102298    -0.20340
H3186       H  0.63141242  0.15835705  0.97811404     0.17430
H3187       H  0.66368947  0.18409770  0.87855515     0.17440
F3188       F  0.62570262  0.20822847  0.89571192    -0.20320
C3189       C  0.63903244  0.17125379  0.56629825    -0.21760
C3190       C  0.64785446  0.18402294  0.54080996    -0.09800
C3191       C  0.66804580  0.17434924  0.52537455     0.29060
C3192       C  0.67936728  0.15295998  0.53559481    -0.21760
C3193       C  0.67178352  0.14114612  0.56231971    -0.09810
C3194       C  0.65092132  0.15013171  0.57711348     0.29060
F3195       F  0.64283349  0.13946164  0.60291698    -0.20340
H3196       H  0.62311168  0.17786916  0.57826278     0.17430
H3197       H  0.69534938  0.14662180  0.52351221     0.17440
F3198       F  0.67711338  0.18555981  0.50041458    -0.20320
C3199       C  0.66622602  0.34986917  0.49540390    -0.21760
C3200       C  0.69058613  0.34286918  0.98983802    -0.09800
C3201       C  0.69680567  0.31785512  0.99208109     0.29060
C3202       C  0.67912479  0.30048660  0.99980944    -0.21760
C3203       C  0.65474641  0.30742276  0.00514758    -0.09810
C3204       C  0.64845190  0.33240297  0.50287511     0.29060
F3205       F  0.62514215  0.34001388  0.50770816    -0.20340
H3206       H  0.66094802  0.36900625  0.49446344     0.17430
H3207       H  0.68450456  0.28137885  0.00079112     0.17440
F3208       F  0.72008719  0.31005737  0.98750340    -0.20320
C3209       C  0.57652029  0.27368926  0.86141651    -0.21760
C3210       C  0.59863987  0.27090395  0.84560141    -0.09800
C3211       C  0.62082187  0.27367014  0.86147721     0.29060
C3212       C  0.62086336  0.27723453  0.89236029    -0.21760
C3213       C  0.59897499  0.27780187  0.90880561    -0.09810
C3214       C  0.57662976  0.27705391  0.89287924     0.29060
F3215       F  0.55499818  0.27811929  0.90775469    -0.20340
H3216       H  0.55921655  0.27189839  0.84976394     0.17430
H3217       H  0.63842113  0.27813310  0.90363882     0.17440
F3218       F  0.64282685  0.27185346  0.84747113    -0.20320
C3219       C  0.58066005  0.27493937  0.60991361    -0.21760
C3220       C  0.57636577  0.25317845  0.59364122    -0.09800
C3221       C  0.57219186  0.23137852  0.60990716     0.29060
C3222       C  0.57262186  0.23127450  0.64112179    -0.21760
C3223       C  0.57741250  0.25269043  0.65766404    -0.09810
C3224       C  0.58117264  0.27475125  0.64169686     0.29060
F3225       F  0.58555731  0.29593201  0.65659971    -0.20340
H3226       H  0.58402591  0.29200661  0.59804669     0.17430
H3227       H  0.56983810  0.21379534  0.65230813     0.17440
F3228       F  0.56867523  0.20962490  0.59584871    -0.20320
C3229       C  0.31955429  0.15861252  0.81709657    -0.21760
C3230       C  0.29663138  0.16703519  0.82624058    -0.09800
C3231       C  0.28878013  0.19071827  0.81827391     0.29060
C3232       C  0.30399859  0.20570823  0.80063819    -0.21760
C3233       C  0.32735512  0.19733373  0.79258411    -0.09810
C3234       C  0.33515403  0.17388381  0.80136023     0.29060
F3235       F  0.35796961  0.16570178  0.79467890    -0.20340
H3236       H  0.32580098  0.14037963  0.82326828     0.17430
H3237       H  0.29793609  0.22385960  0.79397334     0.17440
F3238       F  0.26651359  0.19901435  0.82705827    -0.20320
C3239       C  0.34363310  0.14578349  0.65618001    -0.21760
C3240       C  0.32807077  0.13233367  0.67533185    -0.09800
C3241       C  0.33124971  0.13427250  0.70655970     0.29060
C3242       C  0.34847952  0.15066496  0.71829807    -0.21760
C3243       C  0.36201122  0.16623166  0.69920863    -0.09810
C3244       C  0.36012835  0.16294827  0.66793404     0.29060
F3245       F  0.37270244  0.17773427  0.64873926    -0.20340
H3246       H  0.34115518  0.14497972  0.63201092     0.17430
H3247       H  0.34924694  0.15302735  0.74236773     0.17440
F3248       F  0.31630118  0.12185361  0.72567924    -0.20320
C3249       C  0.30755491  0.30231346  0.73351834    -0.21760
C3250       C  0.33216784  0.30657304  0.74080014    -0.09800
C3251       C  0.33886762  0.32978362  0.75188990     0.29060
C3252       C  0.32094807  0.34795161  0.75641933    -0.21760
C3253       C  0.29617628  0.34321873  0.74996534    -0.09810
C3254       C  0.28983891  0.32027095  0.73784049     0.29060
F3255       F  0.26641032  0.31501742  0.72998584    -0.20340
H3256       H  0.30185920  0.28484415  0.72439840     0.17430
H3257       H  0.32633966  0.36545277  0.76569609     0.17440
F3258       F  0.36244595  0.33461951  0.75936538    -0.20320
C3259       C  0.48040525  0.24383079  0.72608252    -0.21760
C3260       C  0.46615465  0.22710583  0.74227658    -0.09800
C3261       C  0.47781318  0.20937521  0.76057762     0.29060
C3262       C  0.50345906  0.20945385  0.76369488    -0.21760
C3263       C  0.51750913  0.22731604  0.74876140    -0.09810
C3264       C  0.50570221  0.24388117  0.72900143     0.29060
F3265       F  0.51862989  0.26040846  0.71245367    -0.20340
H3266       H  0.47181066  0.25743792  0.71166487     0.17430
H3267       H  0.51217642  0.19633445  0.77863523     0.17440
F3268       F  0.46438913  0.19318765  0.77697150    -0.20320
C3269       C  0.32093302  0.15423891  0.56101238    -0.21760
C3270       C  0.29981396  0.16356015  0.57444946    -0.09800
C3271       C  0.29310750  0.18819033  0.56971795     0.29060
C3272       C  0.30737643  0.20311523  0.55088334    -0.21760
C3273       C  0.32878855  0.19364251  0.53809642    -0.09810
C3274       C  0.33564440  0.16929461  0.54366383     0.29060
F3275       F  0.35704382  0.16025593  0.53301853    -0.20340
H3276       H  0.32666541  0.13547615  0.56509488     0.17430
H3277       H  0.30227682  0.22209000  0.54713108     0.17440
F3278       F  0.27294939  0.19764761  0.58315222    -0.20320
C3279       C  0.33951229  0.15109360  0.89832284    -0.21760
C3280       C  0.32884130  0.13356761  0.91757288    -0.09800
C3281       C  0.33715867  0.13204553  0.94740051     0.29060
C3282       C  0.35456996  0.14887048  0.95810912    -0.21760
C3283       C  0.36283559  0.16840309  0.93983033    -0.09810
C3284       C  0.35594487  0.16861447  0.90932514     0.29060
F3285       F  0.36341006  0.18696829  0.89069447    -0.20340
H3286       H  0.33318605  0.15289733  0.87551631     0.17430
H3287       H  0.35970700  0.14798229  0.98141200     0.17440
F3288       F  0.32730687  0.11537107  0.96666842    -0.20320
C3289       C  0.28773946  0.31778379  0.50594828    -0.21760
C3290       C  0.29407186  0.34264134  0.00289279    -0.09800
C3291       C  0.31854322  0.34874060  0.99634471     0.29060
C3292       C  0.33601622  0.33014684  0.99236781    -0.21760
C3293       C  0.32939222  0.30526263  0.99490267    -0.09810
C3294       C  0.30502381  0.29936548  0.50214449     0.29060
F3295       F  0.29765882  0.27573688  0.50560347    -0.20340
H3296       H  0.26918707  0.31239398  0.51140010     0.17430
H3297       H  0.35464280  0.33522305  0.98685495     0.17440
F3298       F  0.32553034  0.37250451  0.99328424    -0.20320
C3299       C  0.41618406  0.24958079  0.85399596    -0.21760
C3300       C  0.40237993  0.26384430  0.83373689    -0.09800
C3301       C  0.38605031  0.28150525  0.84509597     0.29060
C3302       C  0.38210799  0.28317738  0.87613350    -0.21760
C3303       C  0.39503476  0.26795029  0.89605740    -0.09810
C3304       C  0.41269125  0.25171748  0.88491987     0.29060
F3305       F  0.42494219  0.23634902  0.90382440    -0.20340
H3306       H  0.42884786  0.23586127  0.84582905     0.17430
H3307       H  0.36834693  0.29566886  0.88455959     0.17440
F3308       F  0.37248729  0.29572102  0.82625117    -0.20320
C3309       C  0.38666644  0.28121035  0.62694359    -0.21760
C3310       C  0.39644517  0.26308956  0.64590698    -0.09800
C3311       C  0.40972877  0.24363027  0.63354945     0.29060
C3312       C  0.41222767  0.24170668  0.60240625    -0.21760
C3313       C  0.40159247  0.25922731  0.58301847    -0.09810
C3314       C  0.38948344  0.27955783  0.59569362     0.29060
F3315       F  0.37920176  0.29712475  0.57798870    -0.20340
H3316       H  0.37617623  0.29619055  0.63630366     0.17430
H3317       H  0.42167316  0.22589216  0.59345008     0.17440
F3318       F  0.41874422  0.22552837  0.65153983    -0.20320
C3319       C  0.47955701  0.22071773  0.96847523    -0.21760
C3320       C  0.46583838  0.23280278  0.99060634    -0.09800
C3321       C  0.47799639  0.24508228  0.51390894     0.29060
C3322       C  0.50330428  0.24660991  0.51411177    -0.21760
C3323       C  0.51718098  0.23565518  0.99140769    -0.09810
C3324       C  0.50527425  0.22205085  0.96890659     0.29060
F3325       F  0.51834213  0.21115780  0.94675740    -0.20340
H3326       H  0.47040097  0.21116602  0.95039062     0.17430
H3327       H  0.51214306  0.25647642  0.53221066     0.17440
F3328       F  0.46528499  0.25582054  0.53654241    -0.20320
loop_ 
_geom_bond_atom_site_label_1 
_geom_bond_atom_site_label_2 
_geom_bond_distance 
_geom_bond_site_symmetry_2 
_ccdc_geom_bond_type 
O1           C16   1.257       .  A
O1           Al9   1.865       .  S
C2           O12   1.262       .  A
C2            O3   1.268       .  A
C2         C1639   1.463       .  S
O3           Al5   1.931       .  S
O4            C6   1.259       .  A
O4           Al5   1.896       .  S
Al5          O13   1.878       .  S
Al5        O1679   1.926       .  S
Al5        O1678   1.770       .  S
C6           O19   1.266       .  A
C6         C1619   1.493       .  S
O7         C1681   1.265       .  A
O7           Al9   1.918   1_556  S
O8           C21   1.266       .  A
O8          Al18   1.903   1_554  S
Al9          O22   1.936       .  S
Al9        O1683   1.947   1_554  S
Al9          O14   1.777   1_554  S
O10        C1681   1.264       .  A
O10         Al18   1.904       .  S
O11        C1684   1.261       .  A
O11         Al18   1.930       .  S
O12       Al1682   1.885       .  S
O13          C20   1.255       .  A
O14         Al18   1.778       .  S
O14       Al1669   1.770       .  S
O15          C16   1.265   1_556  A
O15       Al1669   1.926       .  S
C16        C1609   1.453       .  S
C17        O1671   1.265       .  A
C17        O1674   1.264       .  A
C17        C1656   1.469       .  S
Al18       O1676   1.885       .  S
O19       Al1673   1.947       .  S
C20        O1675   1.261       .  A
C20        C1629   1.483       .  S
C21          O22   1.270       .  A
C21        C1649   1.485       .  S
O23          C38   1.256       .  A
O23         Al31   1.868       .  S
C24          O34   1.262       .  A
C24          O25   1.265       .  A
C24        C1646   1.465       .  S
O25         Al27   1.921       .  S
O26          C28   1.259       .  A
O26         Al27   1.898       .  S
Al27         O35   1.876       .  S
Al27         O37   1.927       .  S
Al27         O36   1.774       .  S
C28          O41   1.266       .  A
C28        C1579   1.485       .  S
O29          C39   1.264       .  A
O29         Al31   1.899       .  S
O30          C43   1.263       .  A
O30         Al40   1.903       .  S
Al31         O44   1.921       .  S
Al31         O41   1.946       .  S
Al31         O36   1.781       .  S
O32          C39   1.268       .  A
O32         Al40   1.923       .  S
O33          C42   1.265       .  A
O33         Al40   1.942       .  S
O34         Al40   1.897       .  S
O35          C42   1.257       .  A
O36         Al40   1.775       .  S
O37          C38   1.265       .  A
C38        C1569   1.453       .  S
C39        C1596   1.474       .  S
C42        C1586   1.485       .  S
C43          O44   1.265       .  A
C43        C1636   1.476       .  S
O45          C60   1.276       .  A
O45         Al53   1.940       .  S
C46          O56   1.268       .  A
C46          O47   1.270       .  A
C46        C1549   1.489       .  S
O47         Al49   1.931       .  S
O48          C50   1.265       .  A
O48         Al49   1.915       .  S
Al49       O1721   1.944       .  S
Al49       O1723   1.914       .  S
Al49         O58   1.772       .  S
C50        O1727   1.261       .  A
C50        C1659   1.471       .  S
O51          C61   1.272       .  A
O51       Al1717   1.970       .  S
O52          C65   1.270       .  A
O52       Al1726   1.949   1_554  S
Al53         O66   1.882       .  S
Al53         O63   1.909   1_554  S
Al53       O1715   1.970   1_554  S
Al53       O1722   1.769   1_554  S
O54          C61   1.250       .  A
O54         Al62   1.858       .  S
O55          C64   1.262       .  A
O55         Al62   1.887       .  S
O56         Al62   1.923       .  S
O57        C1728   1.269       .  A
O57       Al1713   1.944       .  S
O58         Al62   1.753       .  S
O58       Al1717   1.769       .  S
O59          C60   1.271       .  A
O59       Al1713   1.914       .  S
C60        C1556   1.492       .  S
C61        C1516   1.474       .  S
Al62       O1716   1.949       .  S
O63        C1714   1.261       .  A
C64        O1721   1.269       .  A
C64        C1539   1.482       .  S
C65          O66   1.257       .  A
C65        C1526   1.486       .  S
O67          C82   1.261       .  A
O67         Al75   1.896       .  S
C68          O78   1.271       .  A
C68          O69   1.262       .  A
C68        C1546   1.489       .  S
O69         Al71   1.887       .  S
O70          C72   1.258       .  A
O70         Al71   1.903       .  S
Al71         O79   1.892       .  S
Al71         O81   1.905       .  S
Al71         O80   1.770       .  S
C72          O85   1.261       .  A
C72        C1499   1.480       .  S
O73          C83   1.269       .  A
O73         Al75   1.924       .  S
O74          C87   1.272       .  A
O74         Al84   1.954       .  S
Al75         O88   1.892       .  S
Al75         O85   1.927       .  S
Al75         O80   1.787       .  S
O76          C83   1.265       .  A
O76         Al84   1.900       .  S
O77          C86   1.258       .  A
O77         Al84   1.916       .  S
O78         Al84   1.940       .  S
O79          C86   1.258       .  A
O80         Al84   1.785       .  S
O81          C82   1.263       .  A
C82        C1486   1.474       .  S
C83        C1599   1.480       .  S
C86        C1506   1.483       .  S
C87          O88   1.260       .  A
C87        C1559   1.493       .  S
O89         C104   1.260       .  A
O89         Al97   1.882       .  S
C90         O100   1.263       .  A
C90          O91   1.264       .  A
C90        C1466   1.470       .  S
O91         Al93   1.915       .  S
O92          C94   1.259       .  A
O92         Al93   1.887       .  S
Al93        O101   1.870       .  S
Al93       O1767   1.924       .  S
Al93       O1766   1.766       .  S
C94         O107   1.264       .  A
C94        C1449   1.484       .  S
O95         C105   1.265       .  A
O95         Al97   1.908       .  S
O96         C109   1.265       .  A
O96        Al106   1.905       .  S
Al97        O110   1.916       .  S
Al97       O1771   1.941       .  S
Al97        O102   1.776       .  S
O98         C105   1.267       .  A
O98        Al106   1.920       .  S
O99         C108   1.266       .  A
O99        Al106   1.942       .  S
O100      Al1770   1.903       .  S
O101       C1772   1.257       .  A
O102       Al106   1.776       .  S
O102      Al1757   1.766       .  S
O103        C104   1.265       .  A
O103      Al1757   1.924       .  S
C104       C1436   1.464       .  S
C105       C1476   1.468       .  S
Al106      O1764   1.903       .  S
O107      Al1761   1.941   1_554  S
C108       O1765   1.257       .  A
C108       C1626   1.483       .  S
C109        O110   1.265       .  A
C109       C1459   1.480       .  S
O111        C126   1.258       .  A
O111       Al119   1.873       .  S
C112        O122   1.260       .  A
C112        O113   1.264       .  A
C112       C1456   1.458       .  S
O113       Al115   1.917       .  S
O114        C116   1.261       .  A
O114       Al115   1.904       .  S
Al115       O123   1.872       .  S
Al115       O125   1.919       .  S
Al115       O124   1.775       .  S
C116        O129   1.269       .  A
C116       C1419   1.495       .  S
O117        C127   1.264       .  A
O117       Al119   1.898       .  S
O118        C131   1.262       .  A
O118       Al128   1.899       .  S
Al119       O132   1.931       .  S
Al119       O129   1.955       .  S
Al119       O124   1.778       .  S
O120        C127   1.268       .  A
O120       Al128   1.932       .  S
O121        C130   1.266       .  A
O121       Al128   1.948       .  S
O122       Al128   1.889       .  S
O123        C130   1.255       .  A
O124       Al128   1.779       .  S
O125        C126   1.263       .  A
C126       C1409   1.453       .  S
C127       C1426   1.469       .  S
C130       C1589   1.486       .  S
C131        O132   1.266       .  A
C131       C1469   1.471       .  S
O133        C148   1.261       .  A
O133       Al141   1.881       .  S
C134        O144   1.260       .  A
C134        O135   1.263       .  A
C134       C1386   1.464       .  S
O135       Al137   1.915       .  S
O136        C138   1.260       .  A
O136       Al137   1.897       .  S
Al137       O145   1.868       .  S
Al137      O1811   1.924       .  S
Al137       O146   1.771       .  S
C138        O151   1.266       .  A
C138       C1366   1.480       .  S
O139       C1813   1.264       .  A
O139       Al141   1.892   1_556  S
O140        C153   1.260       .  A
O140      Al1814   1.901   1_554  S
Al141       O154   1.920       .  S
Al141      O1815   1.942   1_554  S
Al141      O1810   1.781   1_554  S
O142        C149   1.269       .  A
O142       Al150   1.925       .  S
O143       C1816   1.266       .  A
O143      Al1814   1.940       .  S
O144       Al150   1.894       .  S
O145        C152   1.257       .  A
O146       Al150   1.774       .  S
O146      Al1805   1.781       .  S
O147        C148   1.266   1_556  A
O147      Al1801   1.924       .  S
C148       C1356   1.468       .  S
C149       O1803   1.264       .  A
C149       C1479   1.464       .  S
Al150      O1804   1.901       .  S
Al150      O1807   1.940       .  S
O151      Al1805   1.942       .  S
C152       O1807   1.266       .  A
C152       C1376   1.484       .  S
C153        O154   1.262       .  A
C153       C1396   1.465       .  S
O155        C170   1.260       .  A
O155       Al163   1.879       .  S
C156        O166   1.263       .  A
C156        O157   1.266       .  A
C156       C1399   1.472       .  S
O157       Al159   1.916       .  S
O158        C160   1.259       .  A
O158       Al159   1.901       .  S
Al159       O167   1.871       .  S
Al159       O169   1.921       .  S
Al159       O168   1.770       .  S
C160        O173   1.265       .  A
C160       C1336   1.485       .  S
O161        C171   1.266       .  A
O161       Al163   1.911       .  S
O162        C175   1.262       .  A
O162       Al172   1.900       .  S
Al163       O176   1.924       .  S
Al163       O173   1.943       .  S
Al163       O168   1.779       .  S
O164        C171   1.268       .  A
O164       Al172   1.930       .  S
O165        C174   1.265       .  A
O165       Al172   1.943       .  S
O166       Al172   1.897       .  S
O167        C174   1.255       .  A
O168       Al172   1.778       .  S
O169        C170   1.266       .  A
C170       C1326   1.469       .  S
C171       C1429   1.471       .  S
C174       C1346   1.487       .  S
C175        O176   1.264       .  A
C175       C1389   1.471       .  S
O177        C192   1.263       .  A
O177       Al185   1.901       .  S
C178        O188   1.260       .  A
C178        O179   1.265       .  A
C178       C1286   1.469       .  S
O179       Al181   1.923       .  S
O180        C182   1.262       .  A
O180       Al181   1.898       .  S
Al181       O189   1.889       .  S
Al181      O1855   1.914   1_554  S
Al181      O1854   1.772       .  S
C182        O195   1.267       .  A
C182       C1316   1.482       .  S
O183        C193   1.265       .  A
O183       Al185   1.914       .  S
O184        C197   1.260       .  A
O184       Al194   1.890       .  S
Al185       O198   1.934       .  S
Al185      O1859   1.938       .  S
Al185       O190   1.777       .  S
O186        C193   1.264       .  A
O186       Al194   1.904       .  S
O187        C196   1.263       .  A
O187       Al194   1.922       .  S
O188      Al1858   1.891       .  S
O189       C1860   1.259       .  A
O190       Al194   1.774       .  S
O190      Al1845   1.772       .  S
O191        C192   1.263       .  A
O191      Al1845   1.914       .  S
C192       C1306   1.467       .  S
C193       C1296   1.480       .  S
Al194      O1852   1.891       .  S
O195      Al1849   1.938   1_554  S
C196       O1853   1.259       .  A
C196       C1266   1.480       .  S
C197        O198   1.266       .  A
C197       C1279   1.469       .  S
O199        C214   1.259       .  A
O199       Al207   1.879       .  S
C200        O210   1.263       .  A
C200        O201   1.262       .  A
C200       C1276   1.472       .  S
O201       Al203   1.910       .  S
O202        C204   1.256       .  A
O202       Al203   1.883       .  S
Al203       O211   1.872       .  S
Al203       O213   1.932       .  S
Al203       O212   1.755       .  S
C204        O217   1.270       .  A
C204       C1256   1.488       .  S
O205        C215   1.266       .  A
O205       Al207   1.901       .  S
O206        C219   1.263       .  A
O206       Al216   1.894       .  S
Al207       O220   1.932       .  S
Al207       O217   1.984       .  S
Al207       O212   1.785       .  S
O208        C215   1.269       .  A
O208       Al216   1.915       .  S
O209        C218   1.269       .  A
O209       Al216   1.951       .  S
O210       Al216   1.909       .  S
O211        C218   1.258       .  A
O212       Al216   1.766       .  S
O213        C214   1.265       .  A
C214       C1249   1.464       .  S
C215       C1239   1.472       .  S
C218       C1226   1.485       .  S
C219        O220   1.268       .  A
C219       C1289   1.469       .  S
O221        C236   1.281       .  A
O221       Al229   1.969       .  S
C222        O232   1.273       .  A
C222        O223   1.267       .  A
C222       C1196   1.487       .  S
O223      Al1889   1.919   1_554  S
O224        C226   1.265   1_556  A
O224      Al1889   1.916       .  S
Al225       O233   1.938       .  S
Al225       O235   1.894       .  S
Al225      O1887   1.919       .  S
Al225      O1888   1.916       .  S
Al225       O234   1.772       .  S
C226       O1903   1.262       .  A
C226       C1299   1.476       .  S
O227        C237   1.280       .  A
O227      Al1893   2.010   1_554  S
O228        C241   1.276       .  A
O228      Al1902   1.991       .  S
Al229       O242   1.870       .  S
Al229       O239   1.902       .  S
Al229      O1891   2.010       .  S
Al229       O234   1.772       .  S
O230        C237   1.242       .  A
O230       Al238   1.852       .  S
O231       C1904   1.264       .  A
O231       Al238   1.891   1_556  S
O232       Al238   1.939       .  S
O233        C240   1.269       .  A
O234      Al1902   1.753       .  S
O235        C236   1.267       .  A
C236       C1189   1.495       .  S
C237       C1206   1.476       .  S
Al238      O1892   1.991   1_554  S
Al238      O1898   1.753   1_554  S
O239       C1890   1.262       .  A
C240       O1895   1.264       .  A
C240       C1536   1.483       .  S
C241        O242   1.250       .  A
C241       C1219   1.487       .  S
O243        C258   1.258       .  A
O243       Al251   1.889       .  S
C244        O254   1.273       .  A
C244        O245   1.258       .  A
C244       C1199   1.493       .  S
O245       Al247   1.889       .  S
O246        C248   1.260       .  A
O246       Al247   1.895       .  S
Al247       O255   1.872       .  S
Al247       O257   1.873       .  S
Al247       O256   1.761       .  S
C248        O261   1.267       .  A
C248       C1176   1.485       .  S
O249        C259   1.265       .  A
O249       Al251   1.915       .  S
O250        C263   1.278       .  A
O250       Al260   1.949       .  S
Al251       O264   1.915       .  S
Al251       O261   1.953       .  S
Al251       O256   1.784       .  S
O252        C259   1.262       .  A
O252       Al260   1.895       .  S
O253        C262   1.267       .  A
O253       Al260   1.957       .  S
O254       Al260   1.960       .  S
O255        C262   1.254       .  A
O256       Al260   1.778       .  S
O257        C258   1.252       .  A
C258       C1166   1.441       .  S
C259       C1236   1.479       .  S
C262       C1509   1.481       .  S
C263        O264   1.267       .  A
C263       C1186   1.495       .  S
O265        C280   1.260       .  A
O265       Al273   1.880       .  S
C266        O276   1.264       .  A
C266        O267   1.266       .  A
C266       C1129   1.482       .  S
O267       Al269   1.914       .  S
O268        C270   1.257       .  A
O268       Al269   1.891       .  S
Al269       O277   1.879       .  S
Al269      O1943   1.923   1_554  S
Al269      O1942   1.767       .  S
C270        O283   1.266       .  A
C270       C1159   1.481       .  S
O271        C281   1.267       .  A
O271       Al273   1.910       .  S
O272        C285   1.263       .  A
O272       Al282   1.899       .  S
Al273       O286   1.933       .  S
Al273      O1947   1.949       .  S
Al273       O278   1.783       .  S
O274        C281   1.267       .  A
O274       Al282   1.914       .  S
O275        C284   1.262       .  A
O275       Al282   1.930       .  S
O276      Al1946   1.898       .  S
O277       C1948   1.256       .  A
O278       Al282   1.776       .  S
O278      Al1933   1.767       .  S
O279        C280   1.267       .  A
O279      Al1933   1.923       .  S
C280       C1146   1.475       .  S
C281       C1136   1.480       .  S
Al282      O1940   1.898       .  S
O283      Al1937   1.949   1_554  S
C284       O1941   1.256       .  A
C284       C1379   1.483       .  S
C285        O286   1.266       .  A
C285       C1119   1.474       .  S
O287        C302   1.257       .  A
O287       Al295   1.868       .  S
C288        O298   1.265       .  A
C288        O289   1.268       .  A
C288       C1116   1.473       .  S
O289       Al291   1.923       .  S
O290        C292   1.260       .  A
O290       Al291   1.903       .  S
Al291       O299   1.877       .  S
Al291       O301   1.928       .  S
Al291       O300   1.769       .  S
C292        O305   1.265       .  A
C292       C1106   1.483       .  S
O293        C303   1.264       .  A
O293       Al295   1.905       .  S
O294        C307   1.262       .  A
O294       Al304   1.899       .  S
Al295       O308   1.932       .  S
Al295       O305   1.939       .  S
Al295       O300   1.778       .  S
O296        C303   1.268       .  A
O296       Al304   1.928       .  S
O297        C306   1.264       .  A
O297       Al304   1.939       .  S
O298       Al304   1.903       .  S
O299        C306   1.257       .  A
O300       Al304   1.777       .  S
O301        C302   1.266       .  A
C302       C1099   1.456       .  S
C303       C1086   1.474       .  S
C306       C1349   1.485       .  S
C307        O308   1.265       .  A
C307       C1126   1.462       .  S
O309        C324   1.275       .  A
O309       Al317   1.955       .  S
C310        O320   1.270       .  A
C310        O311   1.265       .  A
C310       C1056   1.489       .  S
O311      Al1977   1.917   1_554  S
O312       C1978   1.267   1_556  A
O312      Al1977   1.918       .  S
Al313       O321   1.943       .  S
Al313       O323   1.902       .  S
Al313      O1975   1.917       .  S
Al313      O1976   1.918       .  S
Al313       O322   1.766       .  S
C314        O327   1.263       .  A
C314       O1976   1.267       .  A
C314       C1139   1.476       .  S
O315        C325   1.275       .  A
O315      Al1981   1.988   1_554  S
O316        C329   1.271       .  A
O316      Al1990   1.956       .  S
Al317       O330   1.879       .  S
Al317       O327   1.903       .  S
Al317      O1979   1.988       .  S
Al317       O322   1.776       .  S
O318        C325   1.250       .  A
O318       Al326   1.861       .  S
O319       C1992   1.261       .  A
O319       Al326   1.883   1_556  S
O320       Al326   1.939       .  S
O321        C328   1.269       .  A
O322      Al1990   1.755       .  S
O323        C324   1.266       .  A
C324       C1046   1.485       .  S
C325       C1066   1.484       .  S
Al326      O1980   1.956   1_554  S
Al326      O1986   1.755   1_554  S
C328       O1983   1.261       .  A
C328       C1269   1.481       .  S
C329        O330   1.256       .  A
C329       C1076   1.484       .  S
O331        C346   1.262       .  A
O331       Al339   1.900       .  S
C332        O342   1.268       .  A
C332        O333   1.258       .  A
C332       C1059   1.488       .  S
O333       Al335   1.892       .  S
O334        C336   1.257       .  A
O334       Al335   1.886       .  S
Al335       O343   1.877       .  S
Al335       O345   1.917       .  S
Al335       O344   1.758       .  S
C336        O349   1.268       .  A
C336       C1039   1.488       .  S
O337        C347   1.268       .  A
O337       Al339   1.905       .  S
O338        C351   1.267       .  A
O338       Al348   1.929       .  S
Al339       O352   1.918       .  S
Al339       O349   1.978       .  S
Al339       O344   1.794       .  S
O340        C347   1.267       .  A
O340       Al348   1.910       .  S
O341        C350   1.267       .  A
O341       Al348   1.941       .  S
O342       Al348   1.945       .  S
O343        C350   1.260       .  A
O344       Al348   1.772       .  S
O345        C346   1.263       .  A
C346       C1026   1.472       .  S
C347       C1089   1.470       .  S
C350       C1229   1.485       .  S
C351        O352   1.263       .  A
C351       C1049   1.483       .  S
O353        C368   1.254       .  A
O353       Al361   1.864       .  S
C354        O364   1.265       .  A
C354        O355   1.266       .  A
C354        C996   1.478       .  S
O355       Al357   1.933       .  S
O356        C358   1.255       .  A
O356       Al357   1.882       .  S
Al357       O365   1.893       .  S
Al357       O367   1.967       .  S
Al357       O366   1.755       .  S
C358        O371   1.274       .  A
C358       C1179   1.496       .  S
O359        C369   1.265       .  A
O359       Al361   1.909       .  S
O360        C373   1.266       .  A
O360       Al370   1.894       .  S
Al361       O374   1.947       .  S
Al361       O371   1.999       .  S
Al361       O366   1.781       .  S
O362        C369   1.262       .  A
O362       Al370   1.893       .  S
O363        C372   1.266       .  A
O363       Al370   1.926       .  S
O364       Al370   1.913       .  S
O365        C372   1.264       .  A
O366       Al370   1.766       .  S
O367        C368   1.269       .  A
C368       C1209   1.469       .  S
C369       C1016   1.472       .  S
C372        C986   1.480       .  S
C373        O374   1.274       .  A
C373       C1006   1.488       .  S
O375        C390   1.255       .  A
O375       Al383   1.859       .  S
C376        O386   1.263       .  A
C376        O377   1.266       .  A
C376       C1009   1.468       .  S
O377       Al379   1.922       .  S
O378        C380   1.250       .  A
O378       Al379   1.877       .  S
Al379       O387   1.852       .  S
Al379       O389   1.936       .  S
Al379       O388   1.763       .  S
C380        O393   1.271       .  A
C380       C1216   1.485       .  S
O381        C391   1.271       .  A
O381       Al383   1.919       .  S
O382        C395   1.269       .  A
O382       Al392   1.921       .  S
Al383       O396   1.935       .  S
Al383       O393   1.988       .  S
Al383       O388   1.777       .  S
O384        C391   1.273       .  A
O384       Al392   1.935       .  S
O385        C394   1.270       .  A
O385       Al392   1.964       .  S
O386       Al392   1.904       .  S
O387        C394   1.251       .  A
O388       Al392   1.767       .  S
O389        C390   1.270       .  A
C390       C1169   1.459       .  S
C391        C976   1.488       .  S
C394        C966   1.484       .  S
C395        O396   1.268       .  A
C395        C999   1.480       .  S
O397        C412   1.256       .  A
O397       Al405   1.866       .  S
C398        O408   1.261       .  A
C398        O399   1.267       .  A
C398        C959   1.468       .  S
O399       Al401   1.927       .  S
O400        C402   1.257       .  A
O400       Al401   1.900       .  S
Al401       O409   1.864       .  S
Al401       O411   1.937       .  S
Al401       O410   1.768       .  S
C402        O415   1.266       .  A
C402       C1446   1.482       .  S
O403        C413   1.264       .  A
O403       Al405   1.891       .  S
O404        C417   1.263       .  A
O404       Al414   1.905       .  S
Al405       O418   1.927       .  S
Al405       O415   1.948       .  S
Al405       O410   1.780       .  S
O406        C413   1.270       .  A
O406       Al414   1.919       .  S
O407        C416   1.263       .  A
O407       Al414   1.933       .  S
O408       Al414   1.886       .  S
O409        C416   1.254       .  A
O410       Al414   1.773       .  S
O411        C412   1.269       .  A
C412       C1406   1.453       .  S
C413       C1019   1.465       .  S
C416        C939   1.476       .  S
C417        O418   1.264       .  A
C417        C946   1.469       .  S
O419        C434   1.261       .  A
O419       Al427   1.884       .  S
C420        O430   1.262       .  A
C420        O421   1.266       .  A
C420        C949   1.471       .  S
O421       Al423   1.919       .  S
O422        C424   1.259       .  A
O422       Al423   1.898       .  S
Al423       O431   1.882       .  S
Al423       O433   1.921       .  S
Al423       O432   1.772       .  S
C424        O437   1.266       .  A
C424       C1416   1.487       .  S
O425        C435   1.270       .  A
O425       Al427   1.922       .  S
O426        C439   1.261       .  A
O426       Al436   1.900       .  S
Al427       O440   1.922       .  S
Al427       O437   1.949       .  S
Al427       O432   1.786       .  S
O428        C435   1.268       .  A
O428       Al436   1.915       .  S
O429        C438   1.262       .  A
O429       Al436   1.931       .  S
O430       Al436   1.896       .  S
O431        C438   1.257       .  A
O432       Al436   1.775       .  S
O433        C434   1.265       .  A
C434       C1439   1.471       .  S
C435        C979   1.483       .  S
C438        C929   1.487       .  S
C439        O440   1.264       .  A
C439        C956   1.469       .  S
O441        C456   1.256       .  A
O441       Al449   1.875       .  S
C442        O452   1.265       .  A
C442        O443   1.264       .  A
C442        C906   1.474       .  S
O443       Al445   1.905       .  S
O444        C446   1.259       .  A
O444       Al445   1.893       .  S
Al445       O453   1.869       .  S
Al445       O455   1.915       .  S
Al445       O454   1.766       .  S
C446        O459   1.270       .  A
C446       C1156   1.485       .  S
O447        C457   1.262       .  A
O447       Al449   1.893       .  S
O448        C461   1.263       .  A
O448       Al458   1.898       .  S
Al449       O462   1.929       .  S
Al449       O459   1.956       .  S
Al449       O454   1.780       .  S
O450        C457   1.268       .  A
O450       Al458   1.921       .  S
O451        C460   1.266       .  A
O451       Al458   1.945       .  S
O452       Al458   1.910       .  S
O453        C460   1.256       .  A
O454       Al458   1.779       .  S
O455        C456   1.261       .  A
C456       C1096   1.451       .  S
C457        C916   1.472       .  S
C460        C886   1.484       .  S
C461        O462   1.266       .  A
C461        C899   1.466       .  S
O463        C478   1.261       .  A
O463       Al471   1.896       .  S
C464        O474   1.263       .  A
C464        O465   1.264       .  A
C464        C896   1.473       .  S
O465       Al467   1.911       .  S
O466        C468   1.261       .  A
O466       Al467   1.901       .  S
Al467       O475   1.883       .  S
Al467       O477   1.915       .  S
Al467       O476   1.776       .  S
C468        O481   1.266       .  A
C468       C1109   1.487       .  S
O469        C479   1.268       .  A
O469       Al471   1.919       .  S
O470        C483   1.263       .  A
O470       Al480   1.907       .  S
Al471       O484   1.911       .  S
Al471       O481   1.937       .  S
Al471       O476   1.782       .  S
O472        C479   1.265       .  A
O472       Al480   1.904       .  S
O473        C482   1.264       .  A
O473       Al480   1.932       .  S
O474       Al480   1.903       .  S
O475        C482   1.258       .  A
O476       Al480   1.782       .  S
O477        C478   1.261       .  A
C478       C1149   1.462       .  S
C479        C876   1.483       .  S
C482        C866   1.483       .  S
C483        O484   1.262       .  A
C483        C909   1.463       .  S
O485        C500   1.257       .  A
O485       Al493   1.869       .  S
C486        O496   1.269       .  A
C486        O487   1.266       .  A
C486        C846   1.481       .  S
O487       Al489   1.905       .  S
O488        C490   1.259       .  A
O488       Al489   1.895       .  S
Al489       O497   1.876       .  S
Al489       O499   1.911       .  S
Al489       O498   1.766       .  S
C490        O503   1.264       .  A
C490       C1576   1.479       .  S
O491        C501   1.265       .  A
O491       Al493   1.915       .  S
O492        C505   1.270       .  A
O492       Al502   1.921       .  S
Al493       O506   1.913       .  S
Al493       O503   1.935       .  S
Al493       O498   1.777       .  S
O494        C501   1.264       .  A
O494       Al502   1.906       .  S
O495        C504   1.261       .  A
O495       Al502   1.930       .  S
O496       Al502   1.916       .  S
O497        C504   1.255       .  A
O498       Al502   1.782       .  S
O499        C500   1.261       .  A
C500       C1606   1.457       .  S
C501        C919   1.477       .  S
C504        C936   1.479       .  S
C505        O506   1.266       .  A
C505        C856   1.481       .  S
O507        C522   1.257       .  A
O507       Al515   1.866       .  S
C508        O518   1.263       .  A
C508        O509   1.266       .  A
C508        C859   1.461       .  S
O509       Al511   1.915       .  S
O510        C512   1.258       .  A
O510       Al511   1.903       .  S
Al511       O519   1.873       .  S
Al511       O521   1.922       .  S
Al511       O520   1.772       .  S
C512        O525   1.264       .  A
C512       C1616   1.485       .  S
O513        C523   1.267       .  A
O513       Al515   1.911       .  S
O514        C527   1.262       .  A
O514       Al524   1.903       .  S
Al515       O528   1.926       .  S
Al515       O525   1.943       .  S
Al515       O520   1.783       .  S
O516        C523   1.270       .  A
O516       Al524   1.926       .  S
O517        C526   1.264       .  A
O517       Al524   1.938       .  S
O518       Al524   1.894       .  S
O519        C526   1.254       .  A
O520       Al524   1.784       .  S
O521        C522   1.265       .  A
C522       C1566   1.452       .  S
C523        C879   1.486       .  S
C526        C926   1.488       .  S
C527        O528   1.264       .  A
C527        C849   1.461       .  S
O529        C544   1.261       .  A
O529       Al537   1.879       .  S
C530        O540   1.264       .  A
C530        O531   1.266       .  A
C530        C829   1.475       .  S
O531       Al533   1.913       .  S
O532        C534   1.257       .  A
O532       Al533   1.898       .  S
Al533       O541   1.879       .  S
Al533       O543   1.924       .  S
Al533       O542   1.770       .  S
C534        O547   1.261       .  A
C534       C1319   1.478       .  S
O535        C545   1.268       .  A
O535       Al537   1.918       .  S
O536        C549   1.268       .  A
O536       Al546   1.923       .  S
Al537       O550   1.906       .  S
Al537       O547   1.930       .  S
Al537       O542   1.779       .  S
O538        C545   1.269       .  A
O538       Al546   1.922       .  S
O539        C548   1.265       .  A
O539       Al546   1.943       .  S
O540       Al546   1.902       .  S
O541        C548   1.255       .  A
O542       Al546   1.777       .  S
O543        C544   1.267       .  A
C544       C1246   1.471       .  S
C545        C836   1.480       .  S
C548        C806   1.491       .  S
C549        O550   1.263       .  A
C549        C819   1.482       .  S
O551        C566   1.258       .  A
O551       Al559   1.885       .  S
C552        O562   1.263       .  A
C552        O553   1.266       .  A
C552        C816   1.461       .  S
O553       Al555   1.929       .  S
O554        C556   1.257       .  A
O554       Al555   1.886       .  S
Al555       O563   1.865       .  S
Al555       O565   1.928       .  S
Al555       O564   1.758       .  S
C556        O569   1.271       .  A
C556       C1259   1.485       .  S
O557        C567   1.265       .  A
O557       Al559   1.908       .  S
O558        C571   1.262       .  A
O558       Al568   1.887       .  S
Al559       O572   1.942       .  S
Al559       O569   1.973       .  S
Al559       O564   1.785       .  S
O560        C567   1.265       .  A
O560       Al568   1.903       .  S
O561        C570   1.262       .  A
O561       Al568   1.935       .  S
O562       Al568   1.892       .  S
O563        C570   1.254       .  A
O564       Al568   1.774       .  S
O565        C566   1.264       .  A
C566       C1309   1.477       .  S
C567        C796   1.469       .  S
C570        C786   1.469       .  S
C571        O572   1.270       .  A
C571        C826   1.466       .  S
O573        C588   1.261       .  A
O573       Al581   1.886       .  S
C574        O584   1.260       .  A
C574        O575   1.261       .  A
C574        C766   1.458       .  S
O575       Al577   1.911       .  S
O576        C578   1.259       .  A
O576       Al577   1.895       .  S
Al577       O585   1.865       .  S
Al577       O587   1.916       .  S
Al577       O586   1.772       .  S
C578        O591   1.268       .  A
C578       C1339   1.488       .  S
O579        C589   1.267       .  A
O579       Al581   1.910       .  S
O580        C593   1.263       .  A
O580       Al590   1.900       .  S
Al581       O594   1.918       .  S
Al581       O591   1.951       .  S
Al581       O586   1.781       .  S
O582        C589   1.268       .  A
O582       Al590   1.915       .  S
O583        C592   1.265       .  A
O583       Al590   1.943       .  S
O584       Al590   1.893       .  S
O585        C592   1.256       .  A
O586       Al590   1.777       .  S
O587        C588   1.264       .  A
C588       C1359   1.466       .  S
C589        C839   1.475       .  S
C592        C889   1.483       .  S
C593        O594   1.265       .  A
C593        C776   1.477       .  S
O595        C610   1.260       .  A
O595       Al603   1.877       .  S
C596        O606   1.260       .  A
C596        O597   1.263       .  A
C596        C779   1.460       .  S
O597       Al599   1.912       .  S
O598        C600   1.259       .  A
O598       Al599   1.900       .  S
Al599       O607   1.874       .  S
Al599       O609   1.924       .  S
Al599       O608   1.775       .  S
C600        O613   1.263       .  A
C600       C1369   1.482       .  S
O601        C611   1.266       .  A
O601       Al603   1.910       .  S
O602        C615   1.264       .  A
O602       Al612   1.908       .  S
Al603       O616   1.911       .  S
Al603       O613   1.931       .  S
Al603       O608   1.777       .  S
O604        C611   1.268       .  A
O604       Al612   1.916       .  S
O605        C614   1.265       .  A
O605       Al612   1.936       .  S
O606       Al612   1.894       .  S
O607        C614   1.257       .  A
O608       Al612   1.776       .  S
O609        C610   1.265       .  A
C610       C1329   1.460       .  S
C611        C799   1.475       .  S
C614        C869   1.484       .  S
C615        O616   1.264       .  A
C615        C769   1.476       .  S
O617        C632   1.255       .  A
O617       Al625   1.882       .  S
C618        O628   1.263       .  A
C618        O619   1.267       .  A
C618        C736   1.474       .  S
O619       Al621   1.934       .  S
O620        C622   1.253       .  A
O620       Al621   1.875       .  S
Al621       O629   1.890       .  S
Al621       O631   1.956       .  S
Al621       O630   1.753       .  S
C622        O635   1.277       .  A
C622       C1036   1.496       .  S
O623        C633   1.264       .  A
O623       Al625   1.906       .  S
O624        C637   1.264       .  A
O624       Al634   1.880       .  S
Al625       O638   1.961       .  S
Al625       O635   2.010       .  S
Al625       O630   1.787       .  S
O626        C633   1.264       .  A
O626       Al634   1.909       .  S
O627        C636   1.268       .  A
O627       Al634   1.948       .  S
O628       Al634   1.908       .  S
O629        C636   1.262       .  A
O630       Al634   1.774       .  S
O631        C632   1.269       .  A
C632       C1069   1.490       .  S
C633        C756   1.475       .  S
C636        C809   1.488       .  S
C637        O638   1.277       .  A
C637        C746   1.485       .  S
O639        C654   1.257       .  A
O639       Al647   1.866       .  S
C640        O650   1.264       .  A
C640        O641   1.266       .  A
C640        C749   1.476       .  S
O641       Al643   1.928       .  S
O642        C644   1.249       .  A
O642       Al643   1.862       .  S
Al643       O651   1.859       .  S
Al643       O653   1.954       .  S
Al643       O652   1.758       .  S
C644        O657   1.271       .  A
C644       C1079   1.484       .  S
O645        C655   1.266       .  A
O645       Al647   1.909       .  S
O646        C659   1.270       .  A
O646       Al656   1.919       .  S
Al647       O660   1.930       .  S
Al647       O657   1.972       .  S
Al647       O652   1.772       .  S
O648        C655   1.266       .  A
O648       Al656   1.906       .  S
O649        C658   1.266       .  A
O649       Al656   1.945       .  S
O650       Al656   1.912       .  S
O651        C658   1.256       .  A
O652       Al656   1.768       .  S
O653        C654   1.270       .  A
C654       C1029   1.469       .  S
C655        C726   1.468       .  S
C658        C789   1.468       .  S
C659        O660   1.271       .  A
C659        C739   1.488       .  S
O661        C676   1.259       .  A
O661       Al669   1.871       .  S
C662        O672   1.264       .  A
C662        O663   1.263       .  A
C662        C719   1.474       .  S
O663       Al665   1.922       .  S
O664        C666   1.249       .  A
O664       Al665   1.867       .  S
Al665       O673   1.856       .  S
Al665       O675   1.951       .  S
Al665       O674   1.758       .  S
C666        O679   1.272       .  A
C666       C1529   1.488       .  S
O667        C677   1.268       .  A
O667       Al669   1.912       .  S
O668        C681   1.267       .  A
O668       Al678   1.909       .  S
Al669       O682   1.940       .  S
Al669       O679   1.981       .  S
Al669       O674   1.775       .  S
O670        C677   1.270       .  A
O670       Al678   1.922       .  S
O671        C680   1.271       .  A
O671       Al678   1.958       .  S
O672       Al678   1.915       .  S
O673        C680   1.256       .  A
O674       Al678   1.760       .  S
O675        C676   1.268       .  A
C676       C1489   1.463       .  S
C677        C759   1.483       .  S
C680        C989   1.480       .  S
C681        O682   1.270       .  A
C681        C706   1.474       .  S
O683        C698   1.255       .  A
O683       Al691   1.878       .  S
C684        O694   1.266       .  A
C684        O685   1.268       .  A
C684        C709   1.479       .  S
O685       Al687   1.933       .  S
O686        C688   1.261       .  A
O686       Al687   1.888       .  S
Al687       O695   1.908       .  S
Al687       O697   1.938       .  S
Al687       O696   1.768       .  S
C688        O701   1.272       .  A
C688       C1496   1.482       .  S
O689        C699   1.260       .  A
O689       Al691   1.906       .  S
O690        C703   1.264       .  A
O690       Al700   1.892       .  S
Al691       O704   1.950       .  S
Al691       O701   1.960       .  S
Al691       O696   1.779       .  S
O692        C699   1.261       .  A
O692       Al700   1.899       .  S
O693        C702   1.264       .  A
O693       Al700   1.922       .  S
O694       Al700   1.909       .  S
O695        C702   1.266       .  A
O696       Al700   1.771       .  S
O697        C698   1.267       .  A
C698       C1519   1.484       .  S
C699        C729   1.475       .  S
C702        C969   1.485       .  S
C703        O704   1.273       .  A
C703        C716   1.483       .  S
C705        C706   1.404       .  A
C705        C710   1.401       .  A
C705        H712   1.083       .  S
C706        C707   1.404       .  A
C707        C708   1.399       .  A
C707        F714   1.358       .  S
C708        C709   1.406       .  A
C708        H713   1.083       .  S
C709        C710   1.407       .  A
C710        F711   1.357       .  S
C715        C716   1.407       .  A
C715       C2384   1.399       .  A
C715        H722   1.083       .  S
C716        C717   1.408       .  A
C717       C2382   1.402       .  A
C717        F724   1.357       .  S
C718        C719   1.405       .  A
C718       C2381   1.402   1_554  A
C718        H723   1.084       .  S
C719        C720   1.403       .  A
C720       C2379   1.399   1_554  A
C720        F721   1.357       .  S
C725        C726   1.405       .  A
C725        C730   1.405   1_565  A
C725        H732   1.083       .  S
C726        C727   1.402       .  A
C727        C728   1.386   1_565  A
C727        F734   1.359       .  S
C728        C729   1.404       .  A
C728        H733   1.084       .  S
C729        C730   1.408       .  A
C730        F731   1.357       .  S
C735        C736   1.399       .  A
C735        C740   1.393       .  A
C735        H742   1.082       .  S
C736        C737   1.405       .  A
C737        C738   1.409       .  A
C737        F744   1.357       .  S
C738        C739   1.410       .  A
C738        H743   1.083       .  S
C739        C740   1.411       .  A
C740        F741   1.358       .  S
C745        C746   1.405       .  A
C745       C2414   1.404   1_554  A
C745        H752   1.083       .  S
C746        C747   1.412       .  A
C747       C2412   1.398   1_554  A
C747        F754   1.358       .  S
C748        C749   1.400       .  A
C748       C2411   1.398       .  A
C748        H753   1.084       .  S
C749        C750   1.408       .  A
C750       C2409   1.404       .  A
C750        F751   1.358       .  S
C755        C756   1.406       .  A
C755        C760   1.406   1_565  A
C755        H762   1.083       .  S
C756        C757   1.403       .  A
C757        C758   1.391   1_565  A
C757        F764   1.358       .  S
C758        C759   1.406       .  A
C758        H763   1.083       .  S
C759        C760   1.409       .  A
C760        F761   1.357       .  S
C765        C766   1.402       .  A
C765        C770   1.401       .  A
C765        H772   1.083       .  S
C766        C767   1.399       .  A
C767        C768   1.391       .  A
C767        F774   1.359       .  S
C768        C769   1.407       .  A
C768        H773   1.083       .  S
C769        C770   1.408       .  A
C770        F771   1.357       .  S
C775        C776   1.407       .  A
C775       C2444   1.394   1_554  A
C775        H782   1.083       .  S
C776        C777   1.409       .  A
C777       C2442   1.399   1_554  A
C777        F784   1.357       .  S
C778        C779   1.401       .  A
C778       C2441   1.399       .  A
C778        H783   1.083       .  S
C779        C780   1.400       .  A
C780       C2439   1.394       .  A
C780        F781   1.358       .  S
C785        C786   1.407       .  A
C785        C790   1.404       .  A
C785        H792   1.083       .  S
C786        C787   1.404       .  A
C787        C788   1.384       .  A
C787        F794   1.359       .  S
C788        C789   1.402       .  A
C788        H793   1.084       .  S
C789        C790   1.405       .  A
C790        F791   1.357       .  S
C795        C796   1.406       .  A
C795        C800   1.406   1_655  A
C795        H802   1.083       .  S
C796        C797   1.402       .  A
C797        C798   1.388   1_655  A
C797        F804   1.358       .  S
C798        C799   1.404       .  A
C798        H803   1.084       .  S
C799        C800   1.407       .  A
C800        F801   1.357       .  S
C805        C806   1.408       .  A
C805        C810   1.407       .  A
C805        H812   1.083       .  S
C806        C807   1.411       .  A
C807        C808   1.395       .  A
C807        F814   1.358       .  S
C808        C809   1.404       .  A
C808        H813   1.083       .  S
C809        C810   1.410       .  A
C810        F811   1.357       .  S
C815        C816   1.403       .  A
C815        C820   1.405       .  A
C815        H822   1.083       .  S
C816        C817   1.397       .  A
C817        C818   1.389       .  A
C817        F824   1.359       .  S
C818        C819   1.409       .  A
C818        H823   1.083       .  S
C819        C820   1.410       .  A
C820        F821   1.357       .  S
C825        C826   1.401       .  A
C825       C2494   1.402       .  A
C825        H832   1.083       .  S
C826        C827   1.403       .  A
C827       C2492   1.394       .  A
C827        F834   1.359       .  S
C828        C829   1.404   1_556  A
C828       C2491   1.394       .  A
C828        H833   1.084   1_556  S
C829        C830   1.409       .  A
C830       C2489   1.402   1_554  A
C830        F831   1.357       .  S
C835        C836   1.405       .  A
C835        C840   1.391   1_655  A
C835        H842   1.084       .  S
C836        C837   1.407       .  A
C837        C838   1.408   1_655  A
C837        F844   1.357       .  S
C838        C839   1.408       .  A
C838        H843   1.083       .  S
C839        C840   1.402       .  A
C840        F841   1.358       .  S
C845        C846   1.409       .  A
C845        C850   1.406       .  A
C845        H852   1.083       .  S
C846        C847   1.412       .  A
C847        C848   1.386       .  A
C847        F854   1.358       .  S
C848        C849   1.394       .  A
C848        H853   1.083       .  S
C849        C850   1.403       .  A
C850        F851   1.357       .  S
C855        C856   1.409       .  A
C855       C2524   1.406   1_554  A
C855        H862   1.083       .  S
C856        C857   1.413       .  A
C857       C2522   1.387   1_554  A
C857        F864   1.358       .  S
C858        C859   1.394       .  A
C858       C2521   1.387       .  A
C858        H863   1.085       .  S
C859        C860   1.403       .  A
C860       C2519   1.406       .  A
C860        F861   1.357       .  S
C865        C866   1.408       .  A
C865        C870   1.404       .  A
C865        H872   1.083       .  S
C866        C867   1.407       .  A
C867        C868   1.393       .  A
C867        F874   1.358       .  S
C868        C869   1.406       .  A
C868        H873   1.083       .  S
C869        C870   1.409       .  A
C870        F871   1.357       .  S
C875        C876   1.408       .  A
C875        C880   1.409   1_565  A
C875        H882   1.083       .  S
C876        C877   1.407       .  A
C877        C878   1.391   1_565  A
C877        F884   1.358       .  S
C878        C879   1.405       .  A
C878        H883   1.083       .  S
C879        C880   1.410       .  A
C880        F881   1.357       .  S
C885        C886   1.409       .  A
C885        C890   1.407       .  A
C885        H892   1.083       .  S
C886        C887   1.409       .  A
C887        C888   1.387       .  A
C887        F894   1.358       .  S
C888        C889   1.404       .  A
C888        H893   1.083       .  S
C889        C890   1.409       .  A
C890        F891   1.357       .  S
C895        C896   1.404       .  A
C895        C900   1.400       .  A
C895        H902   1.083       .  S
C896        C897   1.408       .  A
C897        C898   1.395       .  A
C897        F904   1.358       .  S
C898        C899   1.401       .  A
C898        H903   1.084       .  S
C899        C900   1.404       .  A
C900        F901   1.357       .  S
C905        C906   1.409       .  A
C905       C2574   1.409   1_554  A
C905        H912   1.083       .  S
C906        C907   1.407       .  A
C907       C2572   1.382   1_554  A
C907        F914   1.358       .  S
C908        C909   1.393       .  A
C908       C2571   1.382       .  A
C908        H913   1.078       .  S
C909        C910   1.405       .  A
C910       C2569   1.409       .  A
C910        F911   1.357       .  S
C915        C916   1.397       .  A
C915        C920   1.390   1_565  A
C915        H922   1.084       .  S
C916        C917   1.411       .  A
C917        C918   1.405   1_565  A
C917        F924   1.357       .  S
C918        C919   1.403       .  A
C918        H923   1.083       .  S
C919        C920   1.411       .  A
C920        F921   1.358       .  S
C925        C926   1.407       .  A
C925        C930   1.405       .  A
C925        H932   1.083       .  S
C926        C927   1.411       .  A
C927        C928   1.393       .  A
C927        F934   1.358       .  S
C928        C929   1.404       .  A
C928        H933   1.083       .  S
C929        C930   1.411       .  A
C930        F931   1.357       .  S
C935        C936   1.408       .  A
C935        C940   1.404       .  A
C935        H942   1.083       .  S
C936        C937   1.407       .  A
C937        C938   1.388       .  A
C937        F944   1.358       .  S
C938        C939   1.403       .  A
C938        H943   1.083       .  S
C939        C940   1.407       .  A
C940        F941   1.357       .  S
C945        C946   1.404       .  A
C945        C950   1.399       .  A
C945        H952   1.084       .  S
C946        C947   1.404       .  A
C947        C948   1.397       .  A
C947        F954   1.358       .  S
C948        C949   1.404       .  A
C948        H953   1.084       .  S
C949        C950   1.405       .  A
C950        F951   1.358       .  S
C955        C956   1.403       .  A
C955       C2624   1.396       .  A
C955        H962   1.084       .  S
C956        C957   1.406       .  A
C957       C2622   1.398       .  A
C957        F964   1.358       .  S
C958        C959   1.402       .  A
C958       C2621   1.398   1_554  A
C958        H963   1.083       .  S
C959        C960   1.405       .  A
C960       C2619   1.396   1_554  A
C960        F961   1.358       .  S
C965        C966   1.410       .  A
C965        C970   1.393       .  A
C965        H972   1.083       .  S
C966        C967   1.404       .  A
C967        C968   1.405       .  A
C967        F974   1.357       .  S
C968        C969   1.413       .  A
C968        H973   1.083       .  S
C969        C970   1.403       .  A
C970        F971   1.358       .  S
C975        C976   1.408       .  A
C975        C980   1.411   1_655  A
C975        H982   1.083       .  S
C976        C977   1.410       .  A
C977        C978   1.392   1_655  A
C977        F984   1.358       .  S
C978        C979   1.401       .  A
C978        H983   1.084       .  S
C979        C980   1.410       .  A
C980        F981   1.357       .  S
C985        C986   1.410       .  A
C985        C990   1.401       .  A
C985        H992   1.083       .  S
C986        C987   1.404       .  A
C987        C988   1.390       .  A
C987        F994   1.358       .  S
C988        C989   1.408       .  A
C988        H993   1.083       .  S
C989        C990   1.405       .  A
C990        F991   1.357       .  S
C995        C996   1.403       .  A
C995       C1000   1.401       .  A
C995       H1002   1.084       .  S
C996        C997   1.408       .  A
C997        C998   1.401       .  A
C997       F1004   1.358       .  S
C998        C999   1.404       .  A
C998       H1003   1.083       .  S
C999       C1000   1.409       .  A
C1000      F1001   1.358       .  S
C1005      C1006   1.412       .  A
C1005      C2674   1.403   1_554  A
C1005      H1012   1.083       .  S
C1006      C1007   1.410       .  A
C1007      C2672   1.396   1_554  A
C1007      F1014   1.357       .  S
C1008      C1009   1.401       .  A
C1008      C2671   1.396       .  A
C1008      H1013   1.084       .  S
C1009      C1010   1.400       .  A
C1010      C2669   1.403       .  A
C1010      F1011   1.357       .  S
C1015      C1016   1.403       .  A
C1015      C1020   1.403   1_655  A
C1015      H1022   1.083       .  S
C1016      C1017   1.410       .  A
C1017      C1018   1.386   1_655  A
C1017      F1024   1.359       .  S
C1018      C1019   1.397       .  A
C1018      H1023   1.084       .  S
C1019      C1020   1.408       .  A
C1020      F1021   1.357       .  S
C1025      C1026   1.405       .  A
C1025      C1030   1.400       .  A
C1025      H1032   1.083       .  S
C1026      C1027   1.406       .  A
C1027      C1028   1.392       .  A
C1027      F1034   1.358       .  S
C1028      C1029   1.404       .  A
C1028      H1033   1.084       .  S
C1029      C1030   1.405       .  A
C1030      F1031   1.356       .  S
C1035      C1036   1.413       .  A
C1035      C1040   1.425       .  A
C1035      H1042   1.082       .  S
C1036      C1037   1.410       .  A
C1037      C1038   1.372       .  A
C1037      F1044   1.351       .  S
C1038      C1039   1.393       .  A
C1038      H1043   1.083       .  S
C1039      C1040   1.414       .  A
C1040      F1041   1.356       .  S
C1045      C1046   1.408       .  A
C1045      C1050   1.404       .  A
C1045      H1052   1.084       .  S
C1046      C1047   1.405       .  A
C1047      C1048   1.402       .  A
C1047      F1054   1.357       .  S
C1048      C1049   1.407       .  A
C1048      H1053   1.083       .  S
C1049      C1050   1.406       .  A
C1050      F1051   1.358       .  S
C1055      C1056   1.402       .  A
C1055      C1060   1.395       .  A
C1055      H1062   1.084       .  S
C1056      C1057   1.413       .  A
C1057      C1058   1.410       .  A
C1057      F1064   1.357       .  S
C1058      C1059   1.406       .  A
C1058      H1063   1.083       .  S
C1059      C1060   1.411       .  A
C1060      F1061   1.358       .  S
C1065      C1066   1.404       .  A
C1065      C1070   1.405       .  A
C1065      H1072   1.083       .  S
C1066      C1067   1.411       .  A
C1067      C1068   1.396       .  A
C1067      F1074   1.358       .  S
C1068      C1069   1.403       .  A
C1068      H1073   1.080       .  S
C1069      C1070   1.414       .  A
C1070      F1071   1.357       .  S
C1075      C1076   1.401       .  A
C1075      C1080   1.394       .  A
C1075      H1082   1.083       .  S
C1076      C1077   1.413       .  A
C1077      C1078   1.402       .  A
C1077      F1084   1.358       .  S
C1078      C1079   1.403       .  A
C1078      H1083   1.083       .  S
C1079      C1080   1.413       .  A
C1080      F1081   1.358       .  S
C1085      C1086   1.404       .  A
C1085      C1090   1.393       .  A
C1085      H1092   1.084       .  S
C1086      C1087   1.405       .  A
C1087      C1088   1.405       .  A
C1087      F1094   1.357       .  S
C1088      C1089   1.406       .  A
C1088      H1093   1.084       .  S
C1089      C1090   1.402       .  A
C1090      F1091   1.358       .  S
C1095      C1096   1.395       .  A
C1095      C1100   1.382       .  A
C1095      H1102   1.083       .  S
C1096      C1097   1.403       .  A
C1097      C1098   1.402       .  A
C1097      F1104   1.357       .  S
C1098      C1099   1.404       .  A
C1098      H1103   1.083       .  S
C1099      C1100   1.402       .  A
C1100      F1101   1.359       .  S
C1105      C1106   1.407       .  A
C1105      C1110   1.401       .  A
C1105      H1112   1.081       .  S
C1106      C1107   1.404       .  A
C1107      C1108   1.404       .  A
C1107      F1114   1.357       .  S
C1108      C1109   1.410       .  A
C1108      H1113   1.083       .  S
C1109      C1110   1.406       .  A
C1110      F1111   1.358       .  S
C1115      C1116   1.403       .  A
C1115      C1120   1.397       .  A
C1115      H1122   1.084       .  S
C1116      C1117   1.406       .  A
C1117      C1118   1.401       .  A
C1117      F1124   1.358       .  S
C1118      C1119   1.405       .  A
C1118      H1123   1.083       .  S
C1119      C1120   1.406       .  A
C1120      F1121   1.358       .  S
C1125      C1126   1.398       .  A
C1125      C1130   1.393       .  A
C1125      H1132   1.084       .  S
C1126      C1127   1.401       .  A
C1127      C1128   1.401       .  A
C1127      F1134   1.357       .  S
C1128      C1129   1.409       .  A
C1128      H1133   1.083       .  S
C1129      C1130   1.411       .  A
C1130      F1131   1.358       .  S
C1135      C1136   1.406       .  A
C1135      C1140   1.403       .  A
C1135      H1142   1.083       .  S
C1136      C2801   1.408       .  A
C1137      C1138   1.393       .  A
C1137      C2800   1.408       .  A
C1137      F1144   1.358       .  S
C1138      C2803   1.402       .  A
C1138      H1143   1.084       .  S
C1139      C1140   1.408       .  A
C1139      C2802   1.402       .  A
C1140      F1141   1.357       .  S
C1145      C1146   1.406       .  A
C1145      C1150   1.395       .  A
C1145      H1152   1.083       .  S
C1146      C1147   1.410       .  A
C1147      C1148   1.393       .  A
C1147      F1154   1.358       .  S
C1148      C1149   1.399       .  A
C1148      H1153   1.082       .  S
C1149      C1150   1.401       .  A
C1150      F1151   1.355       .  S
C1155      C1156   1.406       .  A
C1155      C1160   1.402       .  A
C1155      H1162   1.081       .  S
C1156      C1157   1.408       .  A
C1157      C1158   1.403       .  A
C1157      F1164   1.357       .  S
C1158      C1159   1.406       .  A
C1158      H1163   1.084       .  S
C1159      C1160   1.406       .  A
C1160      F1161   1.358       .  S
C1165      C1166   1.391       .  A
C1165      C1170   1.382       .  A
C1165      H1172   1.085       .  S
C1166      C1167   1.402       .  A
C1167      C1168   1.397       .  A
C1167      F1174   1.357       .  S
C1168      C1169   1.403       .  A
C1168      H1173   1.083       .  S
C1169      C1170   1.410       .  A
C1170      F1171   1.358       .  S
C1175      C1176   1.413       .  A
C1175      C1180   1.422       .  A
C1175      H1182   1.082       .  S
C1176      C1177   1.401       .  A
C1177      C1178   1.377       .  A
C1177      F1184   1.356       .  S
C1178      C1179   1.404       .  A
C1178      H1183   1.080       .  S
C1179      C1180   1.412       .  A
C1180      F1181   1.356       .  S
C1185      C1186   1.404       .  A
C1185      C1190   1.408       .  A
C1185      H1192   1.083       .  S
C1186      C1187   1.415       .  A
C1187      C1188   1.401       .  A
C1187      F1194   1.358       .  S
C1188      C1189   1.402       .  A
C1188      H1193   1.083       .  S
C1189      C1190   1.416       .  A
C1190      F1191   1.357       .  S
C1195      C1196   1.398       .  A
C1195      C1200   1.384       .  A
C1195      H1202   1.084       .  S
C1196      C1197   1.414       .  A
C1197      C1198   1.415       .  A
C1197      F1204   1.357       .  S
C1198      C1199   1.408       .  A
C1198      H1203   1.083       .  S
C1199      C1200   1.415       .  A
C1200      F1201   1.358       .  S
C1205      C1206   1.407       .  A
C1205      C1210   1.388       .  A
C1205      H1212   1.076       .  S
C1206      C1207   1.408       .  A
C1207      C1208   1.408       .  A
C1207      F1214   1.357       .  S
C1208      C1209   1.408       .  A
C1208      H1213   1.083       .  S
C1209      C1210   1.395       .  A
C1210      F1211   1.359       .  S
C1215      C1216   1.400       .  A
C1215      C1220   1.403       .  A
C1215      H1222   1.083       .  S
C1216      C1217   1.410       .  A
C1217      C1218   1.403       .  A
C1217      F1224   1.347       .  S
C1218      C1219   1.399       .  A
C1218      H1223   1.084       .  S
C1219      C1220   1.413       .  A
C1220      F1221   1.352       .  S
C1225      C1226   1.407       .  A
C1225      C1230   1.405       .  A
C1225      H1232   1.083       .  S
C1226      C1227   1.409       .  A
C1227      C1228   1.391       .  A
C1227      F1234   1.358       .  S
C1228      C1229   1.404       .  A
C1228      H1233   1.083       .  S
C1229      C1230   1.410       .  A
C1230      F1231   1.357       .  S
C1235      C1236   1.407       .  A
C1235      C1240   1.387       .  A
C1235      H1242   1.083       .  S
C1236      C1237   1.407       .  A
C1237      C1238   1.407       .  A
C1237      F1244   1.357       .  S
C1238      C1239   1.408       .  A
C1238      H1243   1.083       .  S
C1239      C1240   1.401       .  A
C1240      F1241   1.358       .  S
C1245      C1246   1.405       .  A
C1245      C1250   1.393       .  A
C1245      H1252   1.084       .  S
C1246      C1247   1.407       .  A
C1247      C1248   1.394       .  A
C1247      F1254   1.358       .  S
C1248      C1249   1.403       .  A
C1248      H1253   1.084       .  S
C1249      C1250   1.403       .  A
C1250      F1251   1.358       .  S
C1255      C1256   1.399       .  A
C1255      C1260   1.375       .  A
C1255      H1262   1.082       .  S
C1256      C1257   1.412       .  A
C1257      C1258   1.422       .  A
C1257      F1264   1.356       .  S
C1258      C1259   1.412       .  A
C1258      H1263   1.082       .  S
C1259      C1260   1.403       .  A
C1260      F1261   1.352       .  S
C1265      C1266   1.406       .  A
C1265      C1270   1.399       .  A
C1265      H1272   1.083       .  S
C1266      C1267   1.408       .  A
C1267      C1268   1.395       .  A
C1267      F1274   1.358       .  S
C1268      C1269   1.406       .  A
C1268      H1273   1.083       .  S
C1269      C1270   1.409       .  A
C1270      F1271   1.357       .  S
C1275      C1276   1.404       .  A
C1275      C1280   1.394       .  A
C1275      H1282   1.084       .  S
C1276      C1277   1.406       .  A
C1277      C1278   1.401       .  A
C1277      F1284   1.358       .  S
C1278      C1279   1.404       .  A
C1278      H1283   1.083       .  S
C1279      C1280   1.404       .  A
C1280      F1281   1.358       .  S
C1285      C1286   1.402       .  A
C1285      C1290   1.397       .  A
C1285      H1292   1.083       .  S
C1286      C1287   1.406       .  A
C1287      C1288   1.397       .  A
C1287      F1294   1.358       .  S
C1288      C1289   1.402       .  A
C1288      H1293   1.083       .  S
C1289      C1290   1.406       .  A
C1290      F1291   1.358       .  S
C1295      C1296   1.406       .  A
C1295      C1300   1.392       .  A
C1295      H1302   1.084       .  S
C1296      C2961   1.408       .  A
C1297      C1298   1.404       .  A
C1297      C2960   1.408       .  A
C1297      F1304   1.357   1_554  S
C1298      C1299   1.406       .  A
C1298      H1303   1.083   1_554  S
C1299      C2964   1.404       .  A
C1300      C2963   1.404       .  A
C1300      F1301   1.358       .  S
C1305      C1306   1.403       .  A
C1305      C1310   1.395       .  A
C1305      H1312   1.084       .  S
C1306      C1307   1.401       .  A
C1307      C1308   1.397       .  A
C1307      F1314   1.358       .  S
C1308      C1309   1.407       .  A
C1308      H1313   1.080       .  S
C1309      C1310   1.408       .  A
C1310      F1311   1.358       .  S
C1315      C1316   1.408       .  A
C1315      C1320   1.401       .  A
C1315      H1322   1.083       .  S
C1316      C1317   1.406       .  A
C1317      C1318   1.400       .  A
C1317      F1324   1.358       .  S
C1318      C1319   1.407       .  A
C1318      H1323   1.084       .  S
C1319      C1320   1.404       .  A
C1320      F1321   1.357       .  S
C1325      C1326   1.403       .  A
C1325      C1330   1.392       .  A
C1325      H1332   1.083       .  S
C1326      C1327   1.409       .  A
C1327      C1328   1.394       .  A
C1327      F1334   1.358       .  S
C1328      C1329   1.400       .  A
C1328      H1333   1.084       .  S
C1329      C1330   1.403       .  A
C1330      F1331   1.358       .  S
C1335      C1336   1.404       .  A
C1335      C1340   1.404       .  A
C1335      H1342   1.083       .  S
C1336      C1337   1.409       .  A
C1337      C1338   1.402       .  A
C1337      F1344   1.358       .  S
C1338      C1339   1.405       .  A
C1338      H1343   1.084       .  S
C1339      C1340   1.411       .  A
C1340      F1341   1.357       .  S
C1345      C1346   1.408       .  A
C1345      C1350   1.407       .  A
C1345      H1352   1.083       .  S
C1346      C1347   1.410       .  A
C1347      C1348   1.391       .  A
C1347      F1354   1.358       .  S
C1348      C1349   1.403       .  A
C1348      H1353   1.083       .  S
C1349      C1350   1.410       .  A
C1350      F1351   1.357       .  S
C1355      C1356   1.404       .  A
C1355      C1360   1.392       .  A
C1355      H1362   1.084       .  S
C1356      C1357   1.406       .  A
C1357      C1358   1.394       .  A
C1357      F1364   1.358   1_554  S
C1358      C1359   1.403       .  A
C1358      H1363   1.084       .  S
C1359      C1360   1.406       .  A
C1360      F1361   1.358       .  S
C1365      C1366   1.407       .  A
C1365      C1370   1.401       .  A
C1365      H1372   1.084       .  S
C1366      C1367   1.405       .  A
C1367      C1368   1.400       .  A
C1367      F1374   1.358       .  S
C1368      C1369   1.408       .  A
C1368      H1373   1.084       .  S
C1369      C1370   1.406       .  A
C1370      F1371   1.358       .  S
C1375      C1380   1.390   1_556  A
C1375      C3040   1.405       .  A
C1375      H1382   1.083       .  S
C1376      C1377   1.409       .  A
C1376      C3039   1.405       .  A
C1377      C1378   1.404       .  A
C1377      F1384   1.357       .  S
C1378      C1379   1.408       .  A
C1378      H1383   1.083       .  S
C1379      C3044   1.408       .  A
C1380      C3043   1.408       .  A
C1380      F1381   1.358       .  S
C1385      C1386   1.402       .  A
C1385      C1390   1.397       .  A
C1385      H1392   1.083       .  S
C1386      C1387   1.402       .  A
C1387      C1388   1.396       .  A
C1387      F1394   1.358       .  S
C1388      C1389   1.405       .  A
C1388      H1393   1.083       .  S
C1389      C1390   1.406       .  A
C1390      F1391   1.358       .  S
C1395      C1396   1.401       .  A
C1395      C1400   1.396       .  A
C1395      H1402   1.084       .  S
C1396      C1397   1.404       .  A
C1397      C1398   1.398       .  A
C1397      F1404   1.358       .  S
C1398      C1399   1.404       .  A
C1398      H1403   1.083       .  S
C1399      C1400   1.407       .  A
C1400      F1401   1.358       .  S
C1405      C1406   1.396       .  A
C1405      C1410   1.378       .  A
C1405      H1412   1.085       .  S
C1406      C1407   1.403       .  A
C1407      C1408   1.404       .  A
C1407      F1414   1.357       .  S
C1408      C1409   1.405       .  A
C1408      H1413   1.083       .  S
C1409      C1410   1.398       .  A
C1410      F1411   1.358       .  S
C1415      C1416   1.402       .  A
C1415      C1420   1.403       .  A
C1415      H1422   1.084       .  S
C1416      C1417   1.410       .  A
C1417      C1418   1.406       .  A
C1417      F1424   1.357       .  S
C1418      C1419   1.406       .  A
C1418      H1423   1.083       .  S
C1419      C1420   1.411       .  A
C1420      F1421   1.351       .  S
C1425      C1426   1.398       .  A
C1425      C1430   1.397       .  A
C1425      H1432   1.083       .  S
C1426      C1427   1.408       .  A
C1427      C1428   1.404       .  A
C1427      F1434   1.357       .  S
C1428      C1429   1.401       .  A
C1428      H1433   1.083       .  S
C1429      C1430   1.407       .  A
C1430      F1431   1.357       .  S
C1435      C1436   1.402       .  A
C1435      C1440   1.394       .  A
C1435      H1442   1.084       .  S
C1436      C1437   1.404       .  A
C1437      C1438   1.394       .  A
C1437      F1444   1.358       .  S
C1438      C1439   1.405       .  A
C1438      H1443   1.084       .  S
C1439      C1440   1.407       .  A
C1440      F1441   1.358       .  S
C1445      C1446   1.404       .  A
C1445      C1450   1.408       .  A
C1445      H1452   1.083       .  S
C1446      C1447   1.404       .  A
C1447      C1448   1.392       .  A
C1447      F1454   1.345       .  S
C1448      C1449   1.400       .  A
C1448      H1453   1.084       .  S
C1449      C1450   1.413       .  A
C1450      F1451   1.357       .  S
C1455      C1456   1.400       .  A
C1455      C1460   1.401       .  A
C1455      H1462   1.083       .  S
C1456      C1457   1.399       .  A
C1457      C1458   1.391       .  A
C1457      F1464   1.359       .  S
C1458      C1459   1.407       .  A
C1458      H1463   1.083       .  S
C1459      C1460   1.410       .  A
C1460      F1461   1.357       .  S
C1465      C1466   1.402       .  A
C1465      C1470   1.398       .  A
C1465      H1472   1.084       .  S
C1466      C1467   1.406       .  A
C1467      C1468   1.397       .  A
C1467      F1474   1.358       .  S
C1468      C1469   1.402       .  A
C1468      H1473   1.084       .  S
C1469      C1470   1.406       .  A
C1470      F1471   1.357       .  S
C1475      C1480   1.402       .  A
C1475      C3140   1.402   1_554  A
C1475      H1482   1.083       .  S
C1476      C1477   1.406       .  A
C1476      C3139   1.402       .  A
C1477      C1478   1.393       .  A
C1477      F1484   1.358       .  S
C1478      C1479   1.398       .  A
C1478      H1483   1.084       .  S
C1479      C3144   1.407       .  A
C1480      C3143   1.407   1_554  A
C1480      F1481   1.358       .  S
C1485      C1486   1.404       .  A
C1485      C1490   1.391       .  A
C1485      H1492   1.083       .  S
C1486      C1487   1.409       .  A
C1487      C1488   1.398       .  A
C1487      F1494   1.358       .  S
C1488      C1489   1.401       .  A
C1488      H1493   1.082       .  S
C1489      C1490   1.402       .  A
C1490      F1491   1.358       .  S
C1495      C1496   1.407       .  A
C1495      C1500   1.404       .  A
C1495      H1502   1.082       .  S
C1496      C1497   1.406       .  A
C1497      C1498   1.401       .  A
C1497      F1504   1.358       .  S
C1498      C1499   1.406       .  A
C1498      H1503   1.084       .  S
C1499      C1500   1.404       .  A
C1500      F1501   1.357       .  S
C1505      C1506   1.401       .  A
C1505      C1510   1.392       .  A
C1505      H1512   1.083       .  S
C1506      C1507   1.413       .  A
C1507      C1508   1.404       .  A
C1507      F1514   1.357       .  S
C1508      C1509   1.404       .  A
C1508      H1513   1.083       .  S
C1509      C1510   1.411       .  A
C1510      F1511   1.358       .  S
C1515      C1516   1.402       .  A
C1515      C1520   1.400       .  A
C1515      H1522   1.083       .  S
C1516      C1517   1.409       .  A
C1517      C1518   1.395       .  A
C1517      F1524   1.358       .  S
C1518      C1519   1.404       .  A
C1518      H1523   1.083       .  S
C1519      C1520   1.413       .  A
C1520      F1521   1.358       .  S
C1525      C1526   1.411       .  A
C1525      C1530   1.404       .  A
C1525      H1532   1.083       .  S
C1526      C1527   1.405       .  A
C1527      C1528   1.393       .  A
C1527      F1534   1.358       .  S
C1528      C1529   1.410       .  A
C1528      H1533   1.084       .  S
C1529      C1530   1.406       .  A
C1530      F1531   1.357       .  S
C1535      C1540   1.400   1_556  A
C1535      C3200   1.408       .  A
C1535      H1542   1.083       .  S
C1536      C1537   1.409       .  A
C1536      C3199   1.408       .  A
C1537      C1538   1.395       .  A
C1537      F1544   1.357       .  S
C1538      C1539   1.406       .  A
C1538      H1543   1.083       .  S
C1539      C3204   1.408       .  A
C1540      C3203   1.408       .  A
C1540      F1541   1.358       .  S
C1545      C1546   1.408       .  A
C1545      C1550   1.412       .  A
C1545      H1552   1.083       .  S
C1546      C1547   1.411       .  A
C1547      C1548   1.388       .  A
C1547      F1554   1.359       .  S
C1548      C1549   1.403       .  A
C1548      H1553   1.084       .  S
C1549      C1550   1.412       .  A
C1550      F1551   1.357       .  S
C1555      C1556   1.413       .  A
C1555      C1560   1.413       .  A
C1555      H1562   1.083       .  S
C1556      C1557   1.406       .  A
C1557      C1558   1.388       .  A
C1557      F1564   1.358       .  S
C1558      C1559   1.409       .  A
C1558      H1563   1.083       .  S
C1559      C1560   1.408       .  A
C1560      F1561   1.357       .  S
C1565      C1566   1.396       .  A
C1565      C1570   1.380       .  A
C1565      H1572   1.085       .  S
C1566      C1567   1.404       .  A
C1567      C1568   1.403       .  A
C1567      F1574   1.357       .  S
C1568      C1569   1.403       .  A
C1568      H1573   1.083       .  S
C1569      C1570   1.401       .  A
C1570      F1571   1.358       .  S
C1575      C1576   1.407       .  A
C1575      C1580   1.403       .  A
C1575      H1582   1.084       .  S
C1576      C1577   1.403       .  A
C1577      C1578   1.402       .  A
C1577      F1584   1.358       .  S
C1578      C1579   1.407       .  A
C1578      H1583   1.079       .  S
C1579      C1580   1.407       .  A
C1580      F1581   1.358       .  S
C1585      C1586   1.403       .  A
C1585      C1590   1.391       .  A
C1585      H1592   1.083       .  S
C1586      C1587   1.410       .  A
C1587      C1588   1.408       .  A
C1587      F1594   1.357       .  S
C1588      C1589   1.408       .  A
C1588      H1593   1.083       .  S
C1589      C1590   1.409       .  A
C1590      F1591   1.358       .  S
C1595      C1596   1.396       .  A
C1595      C1600   1.389       .  A
C1595      H1602   1.084       .  S
C1596      C1597   1.411       .  A
C1597      C1598   1.408       .  A
C1597      F1604   1.357       .  S
C1598      C1599   1.404       .  A
C1598      H1603   1.083       .  S
C1599      C1600   1.411       .  A
C1600      F1601   1.359       .  S
C1605      C1606   1.397       .  A
C1605      C1610   1.382       .  A
C1605      H1612   1.084       .  S
C1606      C1607   1.407       .  A
C1607      C1608   1.402       .  A
C1607      F1614   1.357       .  S
C1608      C1609   1.402       .  A
C1608      H1613   1.083       .  S
C1609      C1610   1.400       .  A
C1610      F1611   1.356       .  S
C1615      C1616   1.406       .  A
C1615      C1620   1.402       .  A
C1615      H1622   1.075       .  S
C1616      C1617   1.403       .  A
C1617      C1618   1.407       .  A
C1617      F1624   1.357       .  S
C1618      C1619   1.410       .  A
C1618      H1623   1.074       .  S
C1619      C1620   1.407       .  A
C1620      F1621   1.358       .  S
C1625      C1630   1.390       .  A
C1625      C3290   1.405       .  A
C1625      H1632   1.083       .  S
C1626      C1627   1.409       .  A
C1626      C3289   1.405       .  A
C1627      C1628   1.405       .  A
C1627      F1634   1.357       .  S
C1628      C1629   1.408       .  A
C1628      H1633   1.083       .  S
C1629      C3294   1.407       .  A
C1630      C3293   1.407   1_554  A
C1630      F1631   1.358       .  S
C1635      C1636   1.405       .  A
C1635      C1640   1.394       .  A
C1635      H1642   1.084       .  S
C1636      C1637   1.409       .  A
C1637      C1638   1.400       .  A
C1637      F1644   1.357       .  S
C1638      C1639   1.401       .  A
C1638      H1643   1.083       .  S
C1639      C1640   1.402       .  A
C1640      F1641   1.359       .  S
C1645      C1646   1.400       .  A
C1645      C1650   1.401       .  A
C1645      H1652   1.083       .  S
C1646      C1647   1.401       .  A
C1647      C1648   1.396       .  A
C1647      F1654   1.358       .  S
C1648      C1649   1.408       .  A
C1648      H1653   1.083       .  S
C1649      C1650   1.412       .  A
C1650      F1651   1.357       .  S
C1655      C1656   1.405       .  A
C1655      C1660   1.408       .  A
C1655      H1662   1.083       .  S
C1656      C3321   1.404       .  A
C1657      C1658   1.386       .  A
C1657      C3320   1.404   1_554  A
C1657      F1664   1.359       .  S
C1658      C3323   1.400   1_554  A
C1658      H1663   1.084       .  S
C1659      C1660   1.408       .  A
C1659      C3322   1.400       .  A
C1660      F1661   1.357       .  S
O1665      C1680   1.257       .  A
O1665     Al1673   1.865       .  S
C1666      O1676   1.262       .  A
C1666      O1667   1.268       .  A
C1666      C3303   1.463       .  S
O1667     Al1669   1.931       .  S
O1668      C1670   1.259       .  A
O1668     Al1669   1.896       .  S
Al1669     O1677   1.878       .  S
C1670      O1683   1.266       .  A
C1670      C3283   1.493       .  S
O1671     Al1673   1.918       .  S
O1672      C1685   1.266       .  A
O1672     Al1682   1.903       .  S
Al1673     O1686   1.936       .  S
Al1673     O1678   1.777       .  S
O1674     Al1682   1.904       .  S
O1675     Al1682   1.930       .  S
O1677      C1684   1.255       .  A
O1678     Al1682   1.778       .  S
O1679      C1680   1.265       .  A
C1680      C3273   1.453       .  S
C1681      C3320   1.469       .  S
C1684      C3293   1.483       .  S
C1685      O1686   1.270       .  A
C1685      C3313   1.485       .  S
O1687      C1702   1.256       .  A
O1687     Al1695   1.868       .  S
C1688      O1698   1.262       .  A
C1688      O1689   1.265       .  A
C1688      C3310   1.465       .  S
O1689     Al1691   1.921       .  S
O1690      C1692   1.259       .  A
O1690     Al1691   1.898       .  S
Al1691     O1699   1.876       .  S
Al1691     O1701   1.927       .  S
Al1691     O1700   1.774       .  S
C1692      O1705   1.266       .  A
C1692      C3243   1.485       .  S
O1693      C1703   1.264       .  A
O1693     Al1695   1.899       .  S
O1694      C1707   1.263       .  A
O1694     Al1704   1.903       .  S
Al1695     O1708   1.921       .  S
Al1695     O1705   1.946       .  S
Al1695     O1700   1.781       .  S
O1696      C1703   1.268       .  A
O1696     Al1704   1.923       .  S
O1697      C1706   1.265       .  A
O1697     Al1704   1.942       .  S
O1698     Al1704   1.897       .  S
O1699      C1706   1.257       .  A
O1700     Al1704   1.775       .  S
O1701      C1702   1.265       .  A
C1702      C3233   1.453       .  S
C1703      C3260   1.474       .  S
C1706      C3250   1.485       .  S
C1707      O1708   1.265       .  A
C1707      C3300   1.476       .  S
O1709      C1724   1.276       .  A
O1709     Al1717   1.940       .  S
C1710      O1720   1.268       .  A
C1710      O1711   1.270       .  A
C1710      C3213   1.489       .  S
O1711     Al1713   1.931   1_556  S
O1712      C1714   1.265   1_554  A
O1712     Al1713   1.915       .  S
Al1713     O1722   1.772   1_554  S
C1714      C3323   1.471       .  S
O1715      C1725   1.272       .  A
O1716      C1729   1.270       .  A
Al1717     O1730   1.882       .  S
Al1717     O1727   1.909       .  S
O1718      C1725   1.250       .  A
O1718     Al1726   1.858       .  S
O1719      C1728   1.262       .  A
O1719     Al1726   1.887   1_554  S
O1720     Al1726   1.923       .  S
O1722     Al1726   1.753       .  S
O1723      C1724   1.271       .  A
C1724      C3220   1.492       .  S
C1725      C3180   1.474       .  S
C1728      C3203   1.482       .  S
C1729      O1730   1.257       .  A
C1729      C3190   1.486       .  S
O1731      C1746   1.261       .  A
O1731     Al1739   1.896       .  S
C1732      O1742   1.271       .  A
C1732      O1733   1.262       .  A
C1732      C3210   1.489       .  S
O1733     Al1735   1.887       .  S
O1734      C1736   1.258       .  A
O1734     Al1735   1.903       .  S
Al1735     O1743   1.892       .  S
Al1735     O1745   1.905       .  S
Al1735     O1744   1.770       .  S
C1736      O1749   1.261       .  A
C1736      C3163   1.480       .  S
O1737      C1747   1.269       .  A
O1737     Al1739   1.924       .  S
O1738      C1751   1.272       .  A
O1738     Al1748   1.954       .  S
Al1739     O1752   1.892       .  S
Al1739     O1749   1.927       .  S
Al1739     O1744   1.787       .  S
O1740      C1747   1.265       .  A
O1740     Al1748   1.900       .  S
O1741      C1750   1.258       .  A
O1741     Al1748   1.916       .  S
O1742     Al1748   1.940       .  S
O1743      C1750   1.258       .  A
O1744     Al1748   1.785       .  S
O1745      C1746   1.263       .  A
C1746      C3150   1.474       .  S
C1747      C3263   1.480       .  S
C1750      C3170   1.483       .  S
C1751      O1752   1.260       .  A
C1751      C3223   1.493       .  S
O1753      C1768   1.260       .  A
O1753     Al1761   1.882       .  S
C1754      O1764   1.263       .  A
C1754      O1755   1.264       .  A
C1754      C3130   1.470       .  S
O1755     Al1757   1.915       .  S
O1756      C1758   1.259       .  A
O1756     Al1757   1.887       .  S
Al1757     O1765   1.870       .  S
C1758      O1771   1.264       .  A
C1758      C3113   1.484       .  S
O1759      C1769   1.265       .  A
O1759     Al1761   1.908   1_554  S
O1760      C1773   1.265       .  A
O1760     Al1770   1.905   1_556  S
Al1761     O1774   1.916       .  S
Al1761     O1766   1.776   1_556  S
O1762      C1769   1.267   1_556  A
O1762     Al1770   1.920   1_556  S
O1763      C1772   1.266       .  A
O1763     Al1770   1.942       .  S
O1766     Al1770   1.776       .  S
O1767      C1768   1.265   1_554  A
C1768      C3100   1.464       .  S
C1769      C3140   1.468   1_554  S
C1772      C3290   1.483       .  S
C1773      O1774   1.265       .  A
C1773      C3123   1.480       .  S
O1775      C1790   1.258       .  A
O1775     Al1783   1.873       .  S
C1776      O1786   1.260       .  A
C1776      O1777   1.264       .  A
C1776      C3120   1.458       .  S
O1777     Al1779   1.917       .  S
O1778      C1780   1.261       .  A
O1778     Al1779   1.904       .  S
Al1779     O1787   1.872       .  S
Al1779     O1789   1.919       .  S
Al1779     O1788   1.775       .  S
C1780      O1793   1.269       .  A
C1780      C3083   1.495       .  S
O1781      C1791   1.264       .  A
O1781     Al1783   1.898       .  S
O1782      C1795   1.262       .  A
O1782     Al1792   1.899       .  S
Al1783     O1796   1.931       .  S
Al1783     O1793   1.955       .  S
Al1783     O1788   1.778       .  S
O1784      C1791   1.268       .  A
O1784     Al1792   1.932       .  S
O1785      C1794   1.266       .  A
O1785     Al1792   1.948       .  S
O1786     Al1792   1.889       .  S
O1787      C1794   1.255       .  A
O1788     Al1792   1.779       .  S
O1789      C1790   1.263       .  A
C1790      C3073   1.453       .  S
C1791      C3090   1.469       .  S
C1794      C3253   1.486       .  S
C1795      O1796   1.266       .  A
C1795      C3133   1.471       .  S
O1797      C1812   1.261       .  A
O1797     Al1805   1.881       .  S
C1798      O1808   1.260       .  A
C1798      O1799   1.263       .  A
C1798      C3050   1.464       .  S
O1799     Al1801   1.915       .  S
O1800      C1802   1.260       .  A
O1800     Al1801   1.897       .  S
Al1801     O1809   1.868       .  S
Al1801     O1810   1.771       .  S
C1802      O1815   1.266       .  A
C1802      C3030   1.480       .  S
O1803     Al1805   1.892       .  S
O1804      C1817   1.260       .  A
Al1805     O1818   1.920       .  S
O1806      C1813   1.269       .  A
O1806     Al1814   1.925       .  S
O1808     Al1814   1.894       .  S
O1809      C1816   1.257       .  A
O1810     Al1814   1.774       .  S
O1811      C1812   1.266       .  A
C1812      C3020   1.468       .  S
C1813      C3143   1.464       .  S
C1816      C3040   1.484       .  S
C1817      O1818   1.262       .  A
C1817      C3060   1.465       .  S
O1819      C1834   1.260       .  A
O1819     Al1827   1.879       .  S
C1820      O1830   1.263       .  A
C1820      O1821   1.266       .  A
C1820      C3063   1.472       .  S
O1821     Al1823   1.916       .  S
O1822      C1824   1.259       .  A
O1822     Al1823   1.901       .  S
Al1823     O1831   1.871       .  S
Al1823     O1833   1.921       .  S
Al1823     O1832   1.770       .  S
C1824      O1837   1.265       .  A
C1824      C3000   1.485       .  S
O1825      C1835   1.266       .  A
O1825     Al1827   1.911       .  S
O1826      C1839   1.262       .  A
O1826     Al1836   1.900       .  S
Al1827     O1840   1.924       .  S
Al1827     O1837   1.943       .  S
Al1827     O1832   1.779       .  S
O1828      C1835   1.268       .  A
O1828     Al1836   1.930       .  S
O1829      C1838   1.265       .  A
O1829     Al1836   1.943       .  S
O1830     Al1836   1.897       .  S
O1831      C1838   1.255       .  A
O1832     Al1836   1.778       .  S
O1833      C1834   1.266       .  A
C1834      C2990   1.469       .  S
C1835      C3093   1.471       .  S
C1838      C3010   1.487       .  S
C1839      O1840   1.264       .  A
C1839      C3053   1.471       .  S
O1841      C1856   1.263       .  A
O1841     Al1849   1.901       .  S
C1842      O1852   1.260       .  A
C1842      O1843   1.265       .  A
C1842      C2950   1.469       .  S
O1843     Al1845   1.923       .  S
O1844      C1846   1.262       .  A
O1844     Al1845   1.898       .  S
Al1845     O1853   1.889       .  S
C1846      O1859   1.267       .  A
C1846      C2980   1.482       .  S
O1847      C1857   1.265       .  A
O1847     Al1849   1.914   1_554  S
O1848      C1861   1.260       .  A
O1848     Al1858   1.890   1_556  S
Al1849     O1862   1.934       .  S
Al1849     O1854   1.777   1_556  S
O1850      C1857   1.264       .  A
O1850     Al1858   1.904       .  S
O1851      C1860   1.263       .  A
O1851     Al1858   1.922       .  S
O1854     Al1858   1.774       .  S
O1855      C1856   1.263       .  A
C1856      C2970   1.467       .  S
C1857      C2960   1.480       .  S
C1860      C2930   1.480   1_554  S
C1861      O1862   1.266       .  A
C1861      C2943   1.469       .  S
O1863      C1878   1.259       .  A
O1863     Al1871   1.879       .  S
C1864      O1874   1.263       .  A
C1864      O1865   1.262       .  A
C1864      C2940   1.472       .  S
O1865     Al1867   1.910       .  S
O1866      C1868   1.256       .  A
O1866     Al1867   1.883       .  S
Al1867     O1875   1.872       .  S
Al1867     O1877   1.932       .  S
Al1867     O1876   1.755       .  S
C1868      O1881   1.270       .  A
C1868      C2920   1.488       .  S
O1869      C1879   1.266       .  A
O1869     Al1871   1.901       .  S
O1870      C1883   1.263       .  A
O1870     Al1880   1.894       .  S
Al1871     O1884   1.932       .  S
Al1871     O1881   1.984       .  S
Al1871     O1876   1.785       .  S
O1872      C1879   1.269       .  A
O1872     Al1880   1.915       .  S
O1873      C1882   1.269       .  A
O1873     Al1880   1.951       .  S
O1874     Al1880   1.909       .  S
O1875      C1882   1.258       .  A
O1876     Al1880   1.766       .  S
O1877      C1878   1.265       .  A
C1878      C2913   1.464       .  S
C1879      C2903   1.472       .  S
C1882      C2890   1.485       .  S
C1883      O1884   1.268       .  A
C1883      C2953   1.469       .  S
O1885      C1900   1.281       .  A
O1885     Al1893   1.969       .  S
C1886      O1896   1.273       .  A
C1886      O1887   1.267       .  A
C1886      C2860   1.487       .  S
O1888      C1890   1.265       .  A
Al1889     O1897   1.938       .  S
Al1889     O1899   1.894       .  S
Al1889     O1898   1.772       .  S
C1890      C2963   1.476       .  S
O1891      C1901   1.280       .  A
O1892      C1905   1.276       .  A
Al1893     O1906   1.870       .  S
Al1893     O1903   1.902   1_556  S
Al1893     O1898   1.772       .  S
O1894      C1901   1.242       .  A
O1894     Al1902   1.852       .  S
O1895     Al1902   1.891       .  S
O1896     Al1902   1.939       .  S
O1897      C1904   1.269       .  A
O1899      C1900   1.267       .  A
C1900      C2853   1.495       .  S
C1901      C2870   1.476       .  S
C1904      C3200   1.483       .  S
C1905      O1906   1.250       .  A
C1905      C2883   1.487       .  S
O1907      C1922   1.258       .  A
O1907     Al1915   1.889       .  S
C1908      O1918   1.273       .  A
C1908      O1909   1.258       .  A
C1908      C2863   1.493       .  S
O1909     Al1911   1.889       .  S
O1910      C1912   1.260       .  A
O1910     Al1911   1.895       .  S
Al1911     O1919   1.872       .  S
Al1911     O1921   1.873       .  S
Al1911     O1920   1.761       .  S
C1912      O1925   1.267       .  A
C1912      C2840   1.485       .  S
O1913      C1923   1.265       .  A
O1913     Al1915   1.915       .  S
O1914      C1927   1.278       .  A
O1914     Al1924   1.949       .  S
Al1915     O1928   1.915       .  S
Al1915     O1925   1.953       .  S
Al1915     O1920   1.784       .  S
O1916      C1923   1.262       .  A
O1916     Al1924   1.895       .  S
O1917      C1926   1.267       .  A
O1917     Al1924   1.957       .  S
O1918     Al1924   1.960       .  S
O1919      C1926   1.254       .  A
O1920     Al1924   1.778       .  S
O1921      C1922   1.252       .  A
C1922      C2830   1.441       .  S
C1923      C2900   1.479       .  S
C1926      C3173   1.481       .  S
C1927      O1928   1.267       .  A
C1927      C2850   1.495       .  S
O1929      C1944   1.260       .  A
O1929     Al1937   1.880       .  S
C1930      O1940   1.264       .  A
C1930      O1931   1.266       .  A
C1930      C2793   1.482       .  S
O1931     Al1933   1.914       .  S
O1932      C1934   1.257       .  A
O1932     Al1933   1.891       .  S
Al1933     O1941   1.879       .  S
C1934      O1947   1.266       .  A
C1934      C2823   1.481       .  S
O1935      C1945   1.267       .  A
O1935     Al1937   1.910   1_554  S
O1936      C1949   1.263       .  A
O1936     Al1946   1.899   1_556  S
Al1937     O1950   1.933       .  S
Al1937     O1942   1.783   1_556  S
O1938      C1945   1.267       .  A
O1938     Al1946   1.914       .  S
O1939      C1948   1.262       .  A
O1939     Al1946   1.930       .  S
O1942     Al1946   1.776       .  S
O1943      C1944   1.267       .  A
C1944      C2810   1.475       .  S
C1945      C2800   1.480       .  S
C1948      C3043   1.483       .  S
C1949      O1950   1.266       .  A
C1949      C2783   1.474       .  S
O1951      C1966   1.257       .  A
O1951     Al1959   1.868       .  S
C1952      O1962   1.265       .  A
C1952      O1953   1.268       .  A
C1952      C2780   1.473       .  S
O1953     Al1955   1.923       .  S
O1954      C1956   1.260       .  A
O1954     Al1955   1.903       .  S
Al1955     O1963   1.877       .  S
Al1955     O1965   1.928       .  S
Al1955     O1964   1.769       .  S
C1956      O1969   1.265       .  A
C1956      C2770   1.483       .  S
O1957      C1967   1.264       .  A
O1957     Al1959   1.905       .  S
O1958      C1971   1.262       .  A
O1958     Al1968   1.899       .  S
Al1959     O1972   1.932       .  S
Al1959     O1969   1.939       .  S
Al1959     O1964   1.778       .  S
O1960      C1967   1.268       .  A
O1960     Al1968   1.928       .  S
O1961      C1970   1.264       .  A
O1961     Al1968   1.939       .  S
O1962     Al1968   1.903       .  S
O1963      C1970   1.257       .  A
O1964     Al1968   1.777       .  S
O1965      C1966   1.266       .  A
C1966      C2763   1.456       .  S
C1967      C2750   1.474       .  S
C1970      C3013   1.485       .  S
C1971      O1972   1.265       .  A
C1971      C2790   1.462       .  S
O1973      C1988   1.275       .  A
O1973     Al1981   1.955       .  S
C1974      O1984   1.270       .  A
C1974      O1975   1.265       .  A
C1974      C2720   1.489       .  S
Al1977     O1985   1.943       .  S
Al1977     O1987   1.902       .  S
Al1977     O1986   1.766       .  S
C1978      O1991   1.263       .  A
C1978      C2803   1.476       .  S
O1979      C1989   1.275       .  A
O1980      C1993   1.271       .  A
Al1981     O1994   1.879       .  S
Al1981     O1991   1.903   1_556  S
Al1981     O1986   1.776       .  S
O1982      C1989   1.250       .  A
O1982     Al1990   1.861       .  S
O1983     Al1990   1.883       .  S
O1984     Al1990   1.939       .  S
O1985      C1992   1.269       .  A
O1987      C1988   1.266       .  A
C1988      C2710   1.485       .  S
C1989      C2730   1.484       .  S
C1992      C2933   1.481       .  S
C1993      O1994   1.256       .  A
C1993      C2740   1.484       .  S
O1995      C2010   1.262       .  A
O1995     Al2003   1.900       .  S
C1996      O2006   1.268       .  A
C1996      O1997   1.258       .  A
C1996      C2723   1.488       .  S
O1997     Al1999   1.892       .  S
O1998      C2000   1.257       .  A
O1998     Al1999   1.886       .  S
Al1999     O2007   1.877       .  S
Al1999     O2009   1.917       .  S
Al1999     O2008   1.758       .  S
C2000      O2013   1.268       .  A
C2000      C2703   1.488       .  S
O2001      C2011   1.268       .  A
O2001     Al2003   1.905       .  S
O2002      C2015   1.267       .  A
O2002     Al2012   1.929       .  S
Al2003     O2016   1.918       .  S
Al2003     O2013   1.978       .  S
Al2003     O2008   1.794       .  S
O2004      C2011   1.267       .  A
O2004     Al2012   1.910       .  S
O2005      C2014   1.267       .  A
O2005     Al2012   1.941       .  S
O2006     Al2012   1.945       .  S
O2007      C2014   1.260       .  A
O2008     Al2012   1.772       .  S
O2009      C2010   1.263       .  A
C2010      C2690   1.472       .  S
C2011      C2753   1.470       .  S
C2014      C2893   1.485       .  S
C2015      O2016   1.263       .  A
C2015      C2713   1.483       .  S
O2017      C2032   1.254       .  A
O2017     Al2025   1.864       .  S
C2018      O2028   1.265       .  A
C2018      O2019   1.266       .  A
C2018      C2660   1.478       .  S
O2019     Al2021   1.933       .  S
O2020      C2022   1.255       .  A
O2020     Al2021   1.882       .  S
Al2021     O2029   1.893       .  S
Al2021     O2031   1.967       .  S
Al2021     O2030   1.755       .  S
C2022      O2035   1.274       .  A
C2022      C2843   1.496       .  S
O2023      C2033   1.265       .  A
O2023     Al2025   1.909       .  S
O2024      C2037   1.266       .  A
O2024     Al2034   1.894       .  S
Al2025     O2038   1.947       .  S
Al2025     O2035   1.999       .  S
Al2025     O2030   1.781       .  S
O2026      C2033   1.262       .  A
O2026     Al2034   1.893       .  S
O2027      C2036   1.266       .  A
O2027     Al2034   1.926       .  S
O2028     Al2034   1.913       .  S
O2029      C2036   1.264       .  A
O2030     Al2034   1.766       .  S
O2031      C2032   1.269       .  A
C2032      C2873   1.469       .  S
C2033      C2680   1.472       .  S
C2036      C2650   1.480       .  S
C2037      O2038   1.274       .  A
C2037      C2670   1.488       .  S
O2039      C2054   1.255       .  A
O2039     Al2047   1.859       .  S
C2040      O2050   1.263       .  A
C2040      O2041   1.266       .  A
C2040      C2673   1.468       .  S
O2041     Al2043   1.922       .  S
O2042      C2044   1.250       .  A
O2042     Al2043   1.877       .  S
Al2043     O2051   1.852       .  S
Al2043     O2053   1.936       .  S
Al2043     O2052   1.763       .  S
C2044      O2057   1.271       .  A
C2044      C2880   1.485       .  S
O2045      C2055   1.271       .  A
O2045     Al2047   1.919       .  S
O2046      C2059   1.269       .  A
O2046     Al2056   1.921       .  S
Al2047     O2060   1.935       .  S
Al2047     O2057   1.988       .  S
Al2047     O2052   1.777       .  S
O2048      C2055   1.273       .  A
O2048     Al2056   1.935       .  S
O2049      C2058   1.270       .  A
O2049     Al2056   1.964       .  S
O2050     Al2056   1.904       .  S
O2051      C2058   1.251       .  A
O2052     Al2056   1.767       .  S
O2053      C2054   1.270       .  A
C2054      C2833   1.459       .  S
C2055      C2640   1.488       .  S
C2058      C2630   1.484       .  S
C2059      O2060   1.268       .  A
C2059      C2663   1.480       .  S
O2061      C2076   1.256       .  A
O2061     Al2069   1.866       .  S
C2062      O2072   1.261       .  A
C2062      O2063   1.267       .  A
C2062      C2623   1.468       .  S
O2063     Al2065   1.927       .  S
O2064      C2066   1.257       .  A
O2064     Al2065   1.900       .  S
Al2065     O2073   1.864       .  S
Al2065     O2075   1.937       .  S
Al2065     O2074   1.768       .  S
C2066      O2079   1.266       .  A
C2066      C3110   1.482       .  S
O2067      C2077   1.264       .  A
O2067     Al2069   1.891       .  S
O2068      C2081   1.263       .  A
O2068     Al2078   1.905       .  S
Al2069     O2082   1.927       .  S
Al2069     O2079   1.948       .  S
Al2069     O2074   1.780       .  S
O2070      C2077   1.270       .  A
O2070     Al2078   1.919       .  S
O2071      C2080   1.263       .  A
O2071     Al2078   1.933       .  S
O2072     Al2078   1.886       .  S
O2073      C2080   1.254       .  A
O2074     Al2078   1.773       .  S
O2075      C2076   1.269       .  A
C2076      C3070   1.453       .  S
C2077      C2683   1.465       .  S
C2080      C2603   1.476       .  S
C2081      O2082   1.264       .  A
C2081      C2610   1.469       .  S
O2083      C2098   1.261       .  A
O2083     Al2091   1.884       .  S
C2084      O2094   1.262       .  A
C2084      O2085   1.266       .  A
C2084      C2613   1.471       .  S
O2085     Al2087   1.919       .  S
O2086      C2088   1.259       .  A
O2086     Al2087   1.898       .  S
Al2087     O2095   1.882       .  S
Al2087     O2097   1.921       .  S
Al2087     O2096   1.772       .  S
C2088      O2101   1.266       .  A
C2088      C3080   1.487       .  S
O2089      C2099   1.270       .  A
O2089     Al2091   1.922       .  S
O2090      C2103   1.261       .  A
O2090     Al2100   1.900       .  S
Al2091     O2104   1.922       .  S
Al2091     O2101   1.949       .  S
Al2091     O2096   1.786       .  S
O2092      C2099   1.268       .  A
O2092     Al2100   1.915       .  S
O2093      C2102   1.262       .  A
O2093     Al2100   1.931       .  S
O2094     Al2100   1.896       .  S
O2095      C2102   1.257       .  A
O2096     Al2100   1.775       .  S
O2097      C2098   1.265       .  A
C2098      C3103   1.471       .  S
C2099      C2643   1.483       .  S
C2102      C2593   1.487       .  S
C2103      O2104   1.264       .  A
C2103      C2620   1.469       .  S
O2105      C2120   1.256       .  A
O2105     Al2113   1.875       .  S
C2106      O2116   1.265       .  A
C2106      O2107   1.264       .  A
C2106      C2570   1.474       .  S
O2107     Al2109   1.905       .  S
O2108      C2110   1.259       .  A
O2108     Al2109   1.893       .  S
Al2109     O2117   1.869       .  S
Al2109     O2119   1.915       .  S
Al2109     O2118   1.766       .  S
C2110      O2123   1.270       .  A
C2110      C2820   1.485       .  S
O2111      C2121   1.262       .  A
O2111     Al2113   1.893       .  S
O2112      C2125   1.263       .  A
O2112     Al2122   1.898       .  S
Al2113     O2126   1.929       .  S
Al2113     O2123   1.956       .  S
Al2113     O2118   1.780       .  S
O2114      C2121   1.268       .  A
O2114     Al2122   1.921       .  S
O2115      C2124   1.266       .  A
O2115     Al2122   1.945       .  S
O2116     Al2122   1.910       .  S
O2117      C2124   1.256       .  A
O2118     Al2122   1.779       .  S
O2119      C2120   1.261       .  A
C2120      C2760   1.451       .  S
C2121      C2580   1.472       .  S
C2124      C2550   1.484       .  S
C2125      O2126   1.266       .  A
C2125      C2563   1.466       .  S
O2127      C2142   1.261       .  A
O2127     Al2135   1.896       .  S
C2128      O2138   1.263       .  A
C2128      O2129   1.264       .  A
C2128      C2560   1.473       .  S
O2129     Al2131   1.911       .  S
O2130      C2132   1.261       .  A
O2130     Al2131   1.901       .  S
Al2131     O2139   1.883       .  S
Al2131     O2141   1.915       .  S
Al2131     O2140   1.776       .  S
C2132      O2145   1.266       .  A
C2132      C2773   1.487       .  S
O2133      C2143   1.268       .  A
O2133     Al2135   1.919       .  S
O2134      C2147   1.263       .  A
O2134     Al2144   1.907       .  S
Al2135     O2148   1.911       .  S
Al2135     O2145   1.937       .  S
Al2135     O2140   1.782       .  S
O2136      C2143   1.265       .  A
O2136     Al2144   1.904       .  S
O2137      C2146   1.264       .  A
O2137     Al2144   1.932       .  S
O2138     Al2144   1.903       .  S
O2139      C2146   1.258       .  A
O2140     Al2144   1.782       .  S
O2141      C2142   1.261       .  A
C2142      C2813   1.462       .  S
C2143      C2540   1.483       .  S
C2146      C2530   1.483       .  S
C2147      O2148   1.262       .  A
C2147      C2573   1.463       .  S
O2149      C2164   1.257       .  A
O2149     Al2157   1.869       .  S
C2150      O2160   1.269       .  A
C2150      O2151   1.266       .  A
C2150      C2510   1.481       .  S
O2151     Al2153   1.905       .  S
O2152      C2154   1.259       .  A
O2152     Al2153   1.895       .  S
Al2153     O2161   1.876       .  S
Al2153     O2163   1.911       .  S
Al2153     O2162   1.766       .  S
C2154      O2167   1.264       .  A
C2154      C3240   1.479       .  S
O2155      C2165   1.265       .  A
O2155     Al2157   1.915       .  S
O2156      C2169   1.270       .  A
O2156     Al2166   1.921       .  S
Al2157     O2170   1.913       .  S
Al2157     O2167   1.935       .  S
Al2157     O2162   1.777       .  S
O2158      C2165   1.264       .  A
O2158     Al2166   1.906       .  S
O2159      C2168   1.261       .  A
O2159     Al2166   1.930       .  S
O2160     Al2166   1.916       .  S
O2161      C2168   1.255       .  A
O2162     Al2166   1.782       .  S
O2163      C2164   1.261       .  A
C2164      C3270   1.457       .  S
C2165      C2583   1.477       .  S
C2168      C2600   1.479       .  S
C2169      O2170   1.266       .  A
C2169      C2520   1.481       .  S
O2171      C2186   1.257       .  A
O2171     Al2179   1.866       .  S
C2172      O2182   1.263       .  A
C2172      O2173   1.266       .  A
C2172      C2523   1.461       .  S
O2173     Al2175   1.915       .  S
O2174      C2176   1.258       .  A
O2174     Al2175   1.903       .  S
Al2175     O2183   1.873       .  S
Al2175     O2185   1.922       .  S
Al2175     O2184   1.772       .  S
C2176      O2189   1.264       .  A
C2176      C3280   1.485       .  S
O2177      C2187   1.267       .  A
O2177     Al2179   1.911       .  S
O2178      C2191   1.262       .  A
O2178     Al2188   1.903       .  S
Al2179     O2192   1.926       .  S
Al2179     O2189   1.943       .  S
Al2179     O2184   1.783       .  S
O2180      C2187   1.270       .  A
O2180     Al2188   1.926       .  S
O2181      C2190   1.264       .  A
O2181     Al2188   1.938       .  S
O2182     Al2188   1.894       .  S
O2183      C2190   1.254       .  A
O2184     Al2188   1.784       .  S
O2185      C2186   1.265       .  A
C2186      C3230   1.452       .  S
C2187      C2543   1.486       .  S
C2190      C2590   1.488       .  S
C2191      O2192   1.264       .  A
C2191      C2513   1.461       .  S
O2193      C2208   1.261       .  A
O2193     Al2201   1.879       .  S
C2194      O2204   1.264       .  A
C2194      O2195   1.266       .  A
C2194      C2493   1.475       .  S
O2195     Al2197   1.913       .  S
O2196      C2198   1.257       .  A
O2196     Al2197   1.898       .  S
Al2197     O2205   1.879       .  S
Al2197     O2207   1.924       .  S
Al2197     O2206   1.770       .  S
C2198      O2211   1.261       .  A
C2198      C2983   1.478       .  S
O2199      C2209   1.268       .  A
O2199     Al2201   1.918       .  S
O2200      C2213   1.268       .  A
O2200     Al2210   1.923       .  S
Al2201     O2214   1.906       .  S
Al2201     O2211   1.930       .  S
Al2201     O2206   1.779       .  S
O2202      C2209   1.269       .  A
O2202     Al2210   1.922       .  S
O2203      C2212   1.265       .  A
O2203     Al2210   1.943       .  S
O2204     Al2210   1.902       .  S
O2205      C2212   1.255       .  A
O2206     Al2210   1.777       .  S
O2207      C2208   1.267       .  A
C2208      C2910   1.471       .  S
C2209      C2500   1.480       .  S
C2212      C2470   1.491       .  S
C2213      O2214   1.263       .  A
C2213      C2483   1.482       .  S
O2215      C2230   1.258       .  A
O2215     Al2223   1.885       .  S
C2216      O2226   1.263       .  A
C2216      O2217   1.266       .  A
C2216      C2480   1.461       .  S
O2217     Al2219   1.929       .  S
O2218      C2220   1.257       .  A
O2218     Al2219   1.886       .  S
Al2219     O2227   1.865       .  S
Al2219     O2229   1.928       .  S
Al2219     O2228   1.758       .  S
C2220      O2233   1.271       .  A
C2220      C2923   1.485       .  S
O2221      C2231   1.265       .  A
O2221     Al2223   1.908       .  S
O2222      C2235   1.262       .  A
O2222     Al2232   1.887       .  S
Al2223     O2236   1.942       .  S
Al2223     O2233   1.973       .  S
Al2223     O2228   1.785       .  S
O2224      C2231   1.265       .  A
O2224     Al2232   1.903       .  S
O2225      C2234   1.262       .  A
O2225     Al2232   1.935       .  S
O2226     Al2232   1.892       .  S
O2227      C2234   1.254       .  A
O2228     Al2232   1.774       .  S
O2229      C2230   1.264       .  A
C2230      C2973   1.477       .  S
C2231      C2460   1.469       .  S
C2234      C2450   1.469       .  S
C2235      O2236   1.270       .  A
C2235      C2490   1.466       .  S
O2237      C2252   1.261       .  A
O2237     Al2245   1.886       .  S
C2238      O2248   1.260       .  A
C2238      O2239   1.261       .  A
C2238      C2430   1.458       .  S
O2239     Al2241   1.911       .  S
O2240      C2242   1.259       .  A
O2240     Al2241   1.895       .  S
Al2241     O2249   1.865       .  S
Al2241     O2251   1.916       .  S
Al2241     O2250   1.772       .  S
C2242      O2255   1.268       .  A
C2242      C3003   1.488       .  S
O2243      C2253   1.267       .  A
O2243     Al2245   1.910       .  S
O2244      C2257   1.263       .  A
O2244     Al2254   1.900       .  S
Al2245     O2258   1.918       .  S
Al2245     O2255   1.951       .  S
Al2245     O2250   1.781       .  S
O2246      C2253   1.268       .  A
O2246     Al2254   1.915       .  S
O2247      C2256   1.265       .  A
O2247     Al2254   1.943       .  S
O2248     Al2254   1.893       .  S
O2249      C2256   1.256       .  A
O2250     Al2254   1.777       .  S
O2251      C2252   1.264       .  A
C2252      C3023   1.466       .  S
C2253      C2503   1.475       .  S
C2256      C2553   1.483       .  S
C2257      O2258   1.265       .  A
C2257      C2440   1.477       .  S
O2259      C2274   1.260       .  A
O2259     Al2267   1.877       .  S
C2260      O2270   1.260       .  A
C2260      O2261   1.263       .  A
C2260      C2443   1.460       .  S
O2261     Al2263   1.912       .  S
O2262      C2264   1.259       .  A
O2262     Al2263   1.900       .  S
Al2263     O2271   1.874       .  S
Al2263     O2273   1.924       .  S
Al2263     O2272   1.775       .  S
C2264      O2277   1.263       .  A
C2264      C3033   1.482       .  S
O2265      C2275   1.266       .  A
O2265     Al2267   1.910       .  S
O2266      C2279   1.264       .  A
O2266     Al2276   1.908       .  S
Al2267     O2280   1.911       .  S
Al2267     O2277   1.931       .  S
Al2267     O2272   1.777       .  S
O2268      C2275   1.268       .  A
O2268     Al2276   1.916       .  S
O2269      C2278   1.265       .  A
O2269     Al2276   1.936       .  S
O2270     Al2276   1.894       .  S
O2271      C2278   1.257       .  A
O2272     Al2276   1.776       .  S
O2273      C2274   1.265       .  A
C2274      C2993   1.460       .  S
C2275      C2463   1.475       .  S
C2278      C2533   1.484       .  S
C2279      O2280   1.264       .  A
C2279      C2433   1.476       .  S
O2281      C2296   1.255       .  A
O2281     Al2289   1.882       .  S
C2282      O2292   1.263       .  A
C2282      O2283   1.267       .  A
C2282      C2400   1.474       .  S
O2283     Al2285   1.934       .  S
O2284      C2286   1.253       .  A
O2284     Al2285   1.875       .  S
Al2285     O2293   1.890       .  S
Al2285     O2295   1.956       .  S
Al2285     O2294   1.753       .  S
C2286      O2299   1.277       .  A
C2286      C2700   1.496       .  S
O2287      C2297   1.264       .  A
O2287     Al2289   1.906       .  S
O2288      C2301   1.264       .  A
O2288     Al2298   1.880       .  S
Al2289     O2302   1.961       .  S
Al2289     O2299   2.010       .  S
Al2289     O2294   1.787       .  S
O2290      C2297   1.264       .  A
O2290     Al2298   1.909       .  S
O2291      C2300   1.268       .  A
O2291     Al2298   1.948       .  S
O2292     Al2298   1.908       .  S
O2293      C2300   1.262       .  A
O2294     Al2298   1.774       .  S
O2295      C2296   1.269       .  A
C2296      C2733   1.490       .  S
C2297      C2420   1.475       .  S
C2300      C2473   1.488       .  S
C2301      O2302   1.277       .  A
C2301      C2410   1.485       .  S
O2303      C2318   1.257       .  A
O2303     Al2311   1.866       .  S
C2304      O2314   1.264       .  A
C2304      O2305   1.266       .  A
C2304      C2413   1.476       .  S
O2305     Al2307   1.928       .  S
O2306      C2308   1.249       .  A
O2306     Al2307   1.862       .  S
Al2307     O2315   1.859       .  S
Al2307     O2317   1.954       .  S
Al2307     O2316   1.758       .  S
C2308      O2321   1.271       .  A
C2308      C2743   1.484       .  S
O2309      C2319   1.266       .  A
O2309     Al2311   1.909       .  S
O2310      C2323   1.270       .  A
O2310     Al2320   1.919       .  S
Al2311     O2324   1.930       .  S
Al2311     O2321   1.972       .  S
Al2311     O2316   1.772       .  S
O2312      C2319   1.266       .  A
O2312     Al2320   1.906       .  S
O2313      C2322   1.266       .  A
O2313     Al2320   1.945       .  S
O2314     Al2320   1.912       .  S
O2315      C2322   1.256       .  A
O2316     Al2320   1.768       .  S
O2317      C2318   1.270       .  A
C2318      C2693   1.469       .  S
C2319      C2390   1.468       .  S
C2322      C2453   1.468       .  S
C2323      O2324   1.271       .  A
C2323      C2403   1.488       .  S
O2325      C2340   1.259       .  A
O2325     Al2333   1.871       .  S
C2326      O2336   1.264       .  A
C2326      O2327   1.263       .  A
C2326      C2383   1.474       .  S
O2327     Al2329   1.922       .  S
O2328      C2330   1.249       .  A
O2328     Al2329   1.867       .  S
Al2329     O2337   1.856       .  S
Al2329     O2339   1.951       .  S
Al2329     O2338   1.758       .  S
C2330      O2343   1.272       .  A
C2330      C3193   1.488       .  S
O2331      C2341   1.268       .  A
O2331     Al2333   1.912       .  S
O2332      C2345   1.267       .  A
O2332     Al2342   1.909       .  S
Al2333     O2346   1.940       .  S
Al2333     O2343   1.981       .  S
Al2333     O2338   1.775       .  S
O2334      C2341   1.270       .  A
O2334     Al2342   1.922       .  S
O2335      C2344   1.271       .  A
O2335     Al2342   1.958       .  S
O2336     Al2342   1.915       .  S
O2337      C2344   1.256       .  A
O2338     Al2342   1.760       .  S
O2339      C2340   1.268       .  A
C2340      C3153   1.463       .  S
C2341      C2423   1.483       .  S
C2344      C2653   1.480       .  S
C2345      O2346   1.270       .  A
C2345      C2370   1.474       .  S
O2347      C2362   1.255       .  A
O2347     Al2355   1.878       .  S
C2348      O2358   1.266       .  A
C2348      O2349   1.268       .  A
C2348      C2373   1.479       .  S
O2349     Al2351   1.933       .  S
O2350      C2352   1.261       .  A
O2350     Al2351   1.888       .  S
Al2351     O2359   1.908       .  S
Al2351     O2361   1.938       .  S
Al2351     O2360   1.768       .  S
C2352      O2365   1.272       .  A
C2352      C3160   1.482       .  S
O2353      C2363   1.260       .  A
O2353     Al2355   1.906       .  S
O2354      C2367   1.264       .  A
O2354     Al2364   1.892       .  S
Al2355     O2368   1.950       .  S
Al2355     O2365   1.960       .  S
Al2355     O2360   1.779       .  S
O2356      C2363   1.261       .  A
O2356     Al2364   1.899       .  S
O2357      C2366   1.264       .  A
O2357     Al2364   1.922       .  S
O2358     Al2364   1.909       .  S
O2359      C2366   1.266       .  A
O2360     Al2364   1.771       .  S
O2361      C2362   1.267       .  A
C2362      C3183   1.484       .  S
C2363      C2393   1.475       .  S
C2366      C2633   1.485       .  S
C2367      O2368   1.273       .  A
C2367      C2380   1.483       .  S
C2369      C2370   1.404       .  A
C2369      C2374   1.401       .  A
C2369      H2376   1.083       .  S
C2370      C2371   1.404       .  A
C2371      C2372   1.399       .  A
C2371      F2378   1.358       .  S
C2372      C2373   1.406       .  A
C2372      H2377   1.083       .  S
C2373      C2374   1.407       .  A
C2374      F2375   1.357       .  S
C2379      C2380   1.407       .  A
C2379      H2386   1.083       .  S
C2380      C2381   1.408       .  A
C2381      F2388   1.357       .  S
C2382      C2383   1.405       .  A
C2382      H2387   1.084       .  S
C2383      C2384   1.403       .  A
C2384      F2385   1.357       .  S
C2389      C2390   1.405       .  A
C2389      C2394   1.405   1_565  A
C2389      H2396   1.083       .  S
C2390      C2391   1.402       .  A
C2391      C2392   1.386   1_565  A
C2391      F2398   1.359       .  S
C2392      C2393   1.404       .  A
C2392      H2397   1.084       .  S
C2393      C2394   1.408       .  A
C2394      F2395   1.357       .  S
C2399      C2400   1.399       .  A
C2399      C2404   1.393       .  A
C2399      H2406   1.082       .  S
C2400      C2401   1.405       .  A
C2401      C2402   1.409       .  A
C2401      F2408   1.357       .  S
C2402      C2403   1.410       .  A
C2402      H2407   1.083       .  S
C2403      C2404   1.411       .  A
C2404      F2405   1.358       .  S
C2409      C2410   1.405       .  A
C2409      H2416   1.083       .  S
C2410      C2411   1.412       .  A
C2411      F2418   1.358       .  S
C2412      C2413   1.400       .  A
C2412      H2417   1.084       .  S
C2413      C2414   1.408       .  A
C2414      F2415   1.358       .  S
C2419      C2420   1.406       .  A
C2419      C2424   1.406   1_565  A
C2419      H2426   1.083       .  S
C2420      C2421   1.403       .  A
C2421      C2422   1.391   1_565  A
C2421      F2428   1.358       .  S
C2422      C2423   1.406       .  A
C2422      H2427   1.083       .  S
C2423      C2424   1.409       .  A
C2424      F2425   1.357       .  S
C2429      C2430   1.402       .  A
C2429      C2434   1.401       .  A
C2429      H2436   1.083       .  S
C2430      C2431   1.399       .  A
C2431      C2432   1.391       .  A
C2431      F2438   1.359       .  S
C2432      C2433   1.407       .  A
C2432      H2437   1.083       .  S
C2433      C2434   1.408       .  A
C2434      F2435   1.357       .  S
C2439      C2440   1.407       .  A
C2439      H2446   1.083       .  S
C2440      C2441   1.409       .  A
C2441      F2448   1.357       .  S
C2442      C2443   1.401       .  A
C2442      H2447   1.083       .  S
C2443      C2444   1.400       .  A
C2444      F2445   1.358       .  S
C2449      C2450   1.407       .  A
C2449      C2454   1.404       .  A
C2449      H2456   1.083       .  S
C2450      C2451   1.404       .  A
C2451      C2452   1.384       .  A
C2451      F2458   1.359       .  S
C2452      C2453   1.402       .  A
C2452      H2457   1.084       .  S
C2453      C2454   1.405       .  A
C2454      F2455   1.357       .  S
C2459      C2460   1.406       .  A
C2459      C2464   1.406   1_655  A
C2459      H2466   1.083       .  S
C2460      C2461   1.402       .  A
C2461      C2462   1.388   1_655  A
C2461      F2468   1.358       .  S
C2462      C2463   1.404       .  A
C2462      H2467   1.084       .  S
C2463      C2464   1.407       .  A
C2464      F2465   1.357       .  S
C2469      C2470   1.408       .  A
C2469      C2474   1.407       .  A
C2469      H2476   1.083       .  S
C2470      C2471   1.411       .  A
C2471      C2472   1.395       .  A
C2471      F2478   1.358       .  S
C2472      C2473   1.404       .  A
C2472      H2477   1.083       .  S
C2473      C2474   1.410       .  A
C2474      F2475   1.357       .  S
C2479      C2480   1.403       .  A
C2479      C2484   1.405       .  A
C2479      H2486   1.083       .  S
C2480      C2481   1.397       .  A
C2481      C2482   1.389       .  A
C2481      F2488   1.359       .  S
C2482      C2483   1.409       .  A
C2482      H2487   1.083       .  S
C2483      C2484   1.410       .  A
C2484      F2485   1.357       .  S
C2489      C2490   1.401       .  A
C2489      H2496   1.083       .  S
C2490      C2491   1.403       .  A
C2491      F2498   1.359       .  S
C2492      C2493   1.404       .  A
C2492      H2497   1.084       .  S
C2493      C2494   1.409       .  A
C2494      F2495   1.357       .  S
C2499      C2500   1.405       .  A
C2499      C2504   1.391   1_655  A
C2499      H2506   1.084       .  S
C2500      C2501   1.407       .  A
C2501      C2502   1.408   1_655  A
C2501      F2508   1.357       .  S
C2502      C2503   1.408       .  A
C2502      H2507   1.083       .  S
C2503      C2504   1.402       .  A
C2504      F2505   1.358       .  S
C2509      C2510   1.409       .  A
C2509      C2514   1.406       .  A
C2509      H2516   1.083       .  S
C2510      C2511   1.412       .  A
C2511      C2512   1.386       .  A
C2511      F2518   1.358       .  S
C2512      C2513   1.394       .  A
C2512      H2517   1.083       .  S
C2513      C2514   1.403       .  A
C2514      F2515   1.357       .  S
C2519      C2520   1.409       .  A
C2519      H2526   1.083       .  S
C2520      C2521   1.413       .  A
C2521      F2528   1.358       .  S
C2522      C2523   1.394       .  A
C2522      H2527   1.085       .  S
C2523      C2524   1.403       .  A
C2524      F2525   1.357       .  S
C2529      C2530   1.408       .  A
C2529      C2534   1.404       .  A
C2529      H2536   1.083       .  S
C2530      C2531   1.407       .  A
C2531      C2532   1.393       .  A
C2531      F2538   1.358       .  S
C2532      C2533   1.406       .  A
C2532      H2537   1.083       .  S
C2533      C2534   1.409       .  A
C2534      F2535   1.357       .  S
C2539      C2540   1.408       .  A
C2539      C2544   1.409   1_565  A
C2539      H2546   1.083       .  S
C2540      C2541   1.407       .  A
C2541      C2542   1.391   1_565  A
C2541      F2548   1.358       .  S
C2542      C2543   1.405       .  A
C2542      H2547   1.083       .  S
C2543      C2544   1.410       .  A
C2544      F2545   1.357       .  S
C2549      C2550   1.409       .  A
C2549      C2554   1.407       .  A
C2549      H2556   1.083       .  S
C2550      C2551   1.409       .  A
C2551      C2552   1.387       .  A
C2551      F2558   1.358       .  S
C2552      C2553   1.404       .  A
C2552      H2557   1.083       .  S
C2553      C2554   1.409       .  A
C2554      F2555   1.357       .  S
C2559      C2560   1.404       .  A
C2559      C2564   1.400       .  A
C2559      H2566   1.083       .  S
C2560      C2561   1.408       .  A
C2561      C2562   1.395       .  A
C2561      F2568   1.358       .  S
C2562      C2563   1.401       .  A
C2562      H2567   1.084       .  S
C2563      C2564   1.404       .  A
C2564      F2565   1.357       .  S
C2569      C2570   1.409       .  A
C2569      H2576   1.083       .  S
C2570      C2571   1.407       .  A
C2571      F2578   1.358       .  S
C2572      C2573   1.393       .  A
C2572      H2577   1.078       .  S
C2573      C2574   1.405       .  A
C2574      F2575   1.357       .  S
C2579      C2580   1.397       .  A
C2579      C2584   1.390   1_565  A
C2579      H2586   1.084       .  S
C2580      C2581   1.411       .  A
C2581      C2582   1.405   1_565  A
C2581      F2588   1.357       .  S
C2582      C2583   1.403       .  A
C2582      H2587   1.083       .  S
C2583      C2584   1.411       .  A
C2584      F2585   1.358       .  S
C2589      C2590   1.407       .  A
C2589      C2594   1.405       .  A
C2589      H2596   1.083       .  S
C2590      C2591   1.411       .  A
C2591      C2592   1.393       .  A
C2591      F2598   1.358       .  S
C2592      C2593   1.404       .  A
C2592      H2597   1.083       .  S
C2593      C2594   1.411       .  A
C2594      F2595   1.357       .  S
C2599      C2600   1.408       .  A
C2599      C2604   1.404       .  A
C2599      H2606   1.083       .  S
C2600      C2601   1.407       .  A
C2601      C2602   1.388       .  A
C2601      F2608   1.358       .  S
C2602      C2603   1.403       .  A
C2602      H2607   1.083       .  S
C2603      C2604   1.407       .  A
C2604      F2605   1.357       .  S
C2609      C2610   1.404       .  A
C2609      C2614   1.399       .  A
C2609      H2616   1.084       .  S
C2610      C2611   1.404       .  A
C2611      C2612   1.397       .  A
C2611      F2618   1.358       .  S
C2612      C2613   1.404       .  A
C2612      H2617   1.084       .  S
C2613      C2614   1.405       .  A
C2614      F2615   1.358       .  S
C2619      C2620   1.403       .  A
C2619      H2626   1.084       .  S
C2620      C2621   1.406       .  A
C2621      F2628   1.358       .  S
C2622      C2623   1.402       .  A
C2622      H2627   1.083       .  S
C2623      C2624   1.405       .  A
C2624      F2625   1.358       .  S
C2629      C2630   1.410       .  A
C2629      C2634   1.393       .  A
C2629      H2636   1.083       .  S
C2630      C2631   1.404       .  A
C2631      C2632   1.405       .  A
C2631      F2638   1.357       .  S
C2632      C2633   1.413       .  A
C2632      H2637   1.083       .  S
C2633      C2634   1.403       .  A
C2634      F2635   1.358       .  S
C2639      C2640   1.408       .  A
C2639      C2644   1.411   1_655  A
C2639      H2646   1.083       .  S
C2640      C2641   1.410       .  A
C2641      C2642   1.392   1_655  A
C2641      F2648   1.358       .  S
C2642      C2643   1.401       .  A
C2642      H2647   1.084       .  S
C2643      C2644   1.410       .  A
C2644      F2645   1.357       .  S
C2649      C2650   1.410       .  A
C2649      C2654   1.401       .  A
C2649      H2656   1.083       .  S
C2650      C2651   1.404       .  A
C2651      C2652   1.390       .  A
C2651      F2658   1.358       .  S
C2652      C2653   1.408       .  A
C2652      H2657   1.083       .  S
C2653      C2654   1.405       .  A
C2654      F2655   1.357       .  S
C2659      C2660   1.403       .  A
C2659      C2664   1.401       .  A
C2659      H2666   1.084       .  S
C2660      C2661   1.408       .  A
C2661      C2662   1.401       .  A
C2661      F2668   1.358       .  S
C2662      C2663   1.404       .  A
C2662      H2667   1.083       .  S
C2663      C2664   1.409       .  A
C2664      F2665   1.358       .  S
C2669      C2670   1.412       .  A
C2669      H2676   1.083       .  S
C2670      C2671   1.410       .  A
C2671      F2678   1.357       .  S
C2672      C2673   1.401       .  A
C2672      H2677   1.084       .  S
C2673      C2674   1.400       .  A
C2674      F2675   1.357       .  S
C2679      C2680   1.403       .  A
C2679      C2684   1.403   1_655  A
C2679      H2686   1.083       .  S
C2680      C2681   1.410       .  A
C2681      C2682   1.386   1_655  A
C2681      F2688   1.359       .  S
C2682      C2683   1.397       .  A
C2682      H2687   1.084       .  S
C2683      C2684   1.408       .  A
C2684      F2685   1.357       .  S
C2689      C2690   1.405       .  A
C2689      C2694   1.400       .  A
C2689      H2696   1.083       .  S
C2690      C2691   1.406       .  A
C2691      C2692   1.392       .  A
C2691      F2698   1.358       .  S
C2692      C2693   1.404       .  A
C2692      H2697   1.084       .  S
C2693      C2694   1.405       .  A
C2694      F2695   1.356       .  S
C2699      C2700   1.413       .  A
C2699      C2704   1.425       .  A
C2699      H2706   1.082       .  S
C2700      C2701   1.410       .  A
C2701      C2702   1.372       .  A
C2701      F2708   1.351       .  S
C2702      C2703   1.393       .  A
C2702      H2707   1.083       .  S
C2703      C2704   1.414       .  A
C2704      F2705   1.356       .  S
C2709      C2710   1.408       .  A
C2709      C2714   1.404       .  A
C2709      H2716   1.084       .  S
C2710      C2711   1.405       .  A
C2711      C2712   1.402       .  A
C2711      F2718   1.357       .  S
C2712      C2713   1.407       .  A
C2712      H2717   1.083       .  S
C2713      C2714   1.406       .  A
C2714      F2715   1.358       .  S
C2719      C2720   1.402       .  A
C2719      C2724   1.395       .  A
C2719      H2726   1.084       .  S
C2720      C2721   1.413       .  A
C2721      C2722   1.410       .  A
C2721      F2728   1.357       .  S
C2722      C2723   1.406       .  A
C2722      H2727   1.083       .  S
C2723      C2724   1.411       .  A
C2724      F2725   1.358       .  S
C2729      C2730   1.404       .  A
C2729      C2734   1.405       .  A
C2729      H2736   1.083       .  S
C2730      C2731   1.411       .  A
C2731      C2732   1.396       .  A
C2731      F2738   1.358       .  S
C2732      C2733   1.403       .  A
C2732      H2737   1.080       .  S
C2733      C2734   1.414       .  A
C2734      F2735   1.357       .  S
C2739      C2740   1.401       .  A
C2739      C2744   1.394       .  A
C2739      H2746   1.083       .  S
C2740      C2741   1.413       .  A
C2741      C2742   1.402       .  A
C2741      F2748   1.358       .  S
C2742      C2743   1.403       .  A
C2742      H2747   1.083       .  S
C2743      C2744   1.413       .  A
C2744      F2745   1.358       .  S
C2749      C2750   1.404       .  A
C2749      C2754   1.393       .  A
C2749      H2756   1.084       .  S
C2750      C2751   1.405       .  A
C2751      C2752   1.405       .  A
C2751      F2758   1.357       .  S
C2752      C2753   1.406       .  A
C2752      H2757   1.084       .  S
C2753      C2754   1.402       .  A
C2754      F2755   1.358       .  S
C2759      C2760   1.395       .  A
C2759      C2764   1.382       .  A
C2759      H2766   1.083       .  S
C2760      C2761   1.403       .  A
C2761      C2762   1.402       .  A
C2761      F2768   1.357       .  S
C2762      C2763   1.404       .  A
C2762      H2767   1.083       .  S
C2763      C2764   1.402       .  A
C2764      F2765   1.359       .  S
C2769      C2770   1.407       .  A
C2769      C2774   1.401       .  A
C2769      H2776   1.081       .  S
C2770      C2771   1.404       .  A
C2771      C2772   1.404       .  A
C2771      F2778   1.357       .  S
C2772      C2773   1.410       .  A
C2772      H2777   1.083       .  S
C2773      C2774   1.406       .  A
C2774      F2775   1.358       .  S
C2779      C2780   1.403       .  A
C2779      C2784   1.397       .  A
C2779      H2786   1.084       .  S
C2780      C2781   1.406       .  A
C2781      C2782   1.401       .  A
C2781      F2788   1.358       .  S
C2782      C2783   1.405       .  A
C2782      H2787   1.083       .  S
C2783      C2784   1.406       .  A
C2784      F2785   1.358       .  S
C2789      C2790   1.398       .  A
C2789      C2794   1.393       .  A
C2789      H2796   1.084       .  S
C2790      C2791   1.401       .  A
C2791      C2792   1.401       .  A
C2791      F2798   1.357       .  S
C2792      C2793   1.409       .  A
C2792      H2797   1.083       .  S
C2793      C2794   1.411       .  A
C2794      F2795   1.358       .  S
C2799      C2800   1.406       .  A
C2799      C2804   1.403       .  A
C2799      H2806   1.083       .  S
C2801      C2802   1.393       .  A
C2801      F2808   1.358       .  S
C2802      H2807   1.084       .  S
C2803      C2804   1.408       .  A
C2804      F2805   1.357   1_554  S
C2809      C2810   1.406       .  A
C2809      C2814   1.395       .  A
C2809      H2816   1.083       .  S
C2810      C2811   1.410       .  A
C2811      C2812   1.393       .  A
C2811      F2818   1.358       .  S
C2812      C2813   1.399       .  A
C2812      H2817   1.082       .  S
C2813      C2814   1.401       .  A
C2814      F2815   1.355       .  S
C2819      C2820   1.406       .  A
C2819      C2824   1.402       .  A
C2819      H2826   1.081       .  S
C2820      C2821   1.408       .  A
C2821      C2822   1.403       .  A
C2821      F2828   1.357       .  S
C2822      C2823   1.406       .  A
C2822      H2827   1.084       .  S
C2823      C2824   1.406       .  A
C2824      F2825   1.358       .  S
C2829      C2830   1.391       .  A
C2829      C2834   1.382       .  A
C2829      H2836   1.085       .  S
C2830      C2831   1.402       .  A
C2831      C2832   1.397       .  A
C2831      F2838   1.357       .  S
C2832      C2833   1.403       .  A
C2832      H2837   1.083       .  S
C2833      C2834   1.410       .  A
C2834      F2835   1.358       .  S
C2839      C2840   1.413       .  A
C2839      C2844   1.422       .  A
C2839      H2846   1.082       .  S
C2840      C2841   1.401       .  A
C2841      C2842   1.377       .  A
C2841      F2848   1.356       .  S
C2842      C2843   1.404       .  A
C2842      H2847   1.080       .  S
C2843      C2844   1.412       .  A
C2844      F2845   1.356       .  S
C2849      C2850   1.404       .  A
C2849      C2854   1.408       .  A
C2849      H2856   1.083       .  S
C2850      C2851   1.415       .  A
C2851      C2852   1.401       .  A
C2851      F2858   1.358       .  S
C2852      C2853   1.402       .  A
C2852      H2857   1.083       .  S
C2853      C2854   1.416       .  A
C2854      F2855   1.357       .  S
C2859      C2860   1.398       .  A
C2859      C2864   1.384       .  A
C2859      H2866   1.084       .  S
C2860      C2861   1.414       .  A
C2861      C2862   1.415       .  A
C2861      F2868   1.357       .  S
C2862      C2863   1.408       .  A
C2862      H2867   1.083       .  S
C2863      C2864   1.415       .  A
C2864      F2865   1.358       .  S
C2869      C2870   1.407       .  A
C2869      C2874   1.388       .  A
C2869      H2876   1.076       .  S
C2870      C2871   1.408       .  A
C2871      C2872   1.408       .  A
C2871      F2878   1.357       .  S
C2872      C2873   1.408       .  A
C2872      H2877   1.083       .  S
C2873      C2874   1.395       .  A
C2874      F2875   1.359       .  S
C2879      C2880   1.400       .  A
C2879      C2884   1.403       .  A
C2879      H2886   1.083       .  S
C2880      C2881   1.410       .  A
C2881      C2882   1.403       .  A
C2881      F2888   1.347       .  S
C2882      C2883   1.399       .  A
C2882      H2887   1.084       .  S
C2883      C2884   1.413       .  A
C2884      F2885   1.352       .  S
C2889      C2890   1.407       .  A
C2889      C2894   1.405       .  A
C2889      H2896   1.083       .  S
C2890      C2891   1.409       .  A
C2891      C2892   1.391       .  A
C2891      F2898   1.358       .  S
C2892      C2893   1.404       .  A
C2892      H2897   1.083       .  S
C2893      C2894   1.410       .  A
C2894      F2895   1.357       .  S
C2899      C2900   1.407       .  A
C2899      C2904   1.387       .  A
C2899      H2906   1.083       .  S
C2900      C2901   1.407       .  A
C2901      C2902   1.407       .  A
C2901      F2908   1.357       .  S
C2902      C2903   1.408       .  A
C2902      H2907   1.083       .  S
C2903      C2904   1.401       .  A
C2904      F2905   1.358       .  S
C2909      C2910   1.405       .  A
C2909      C2914   1.393       .  A
C2909      H2916   1.084       .  S
C2910      C2911   1.407       .  A
C2911      C2912   1.394       .  A
C2911      F2918   1.358       .  S
C2912      C2913   1.403       .  A
C2912      H2917   1.084       .  S
C2913      C2914   1.403       .  A
C2914      F2915   1.358       .  S
C2919      C2920   1.399       .  A
C2919      C2924   1.375       .  A
C2919      H2926   1.082       .  S
C2920      C2921   1.412       .  A
C2921      C2922   1.422       .  A
C2921      F2928   1.356       .  S
C2922      C2923   1.412       .  A
C2922      H2927   1.082       .  S
C2923      C2924   1.403       .  A
C2924      F2925   1.352       .  S
C2929      C2930   1.406       .  A
C2929      C2934   1.399       .  A
C2929      H2936   1.083   1_556  S
C2930      C2931   1.408       .  A
C2931      C2932   1.395       .  A
C2931      F2938   1.358       .  S
C2932      C2933   1.406       .  A
C2932      H2937   1.083       .  S
C2933      C2934   1.409       .  A
C2934      F2935   1.357   1_556  S
C2939      C2940   1.404       .  A
C2939      C2944   1.394       .  A
C2939      H2946   1.084       .  S
C2940      C2941   1.406       .  A
C2941      C2942   1.401       .  A
C2941      F2948   1.358       .  S
C2942      C2943   1.404       .  A
C2942      H2947   1.083       .  S
C2943      C2944   1.404       .  A
C2944      F2945   1.358       .  S
C2949      C2950   1.402       .  A
C2949      C2954   1.397       .  A
C2949      H2956   1.083       .  S
C2950      C2951   1.406       .  A
C2951      C2952   1.397       .  A
C2951      F2958   1.358       .  S
C2952      C2953   1.402       .  A
C2952      H2957   1.083       .  S
C2953      C2954   1.406       .  A
C2954      F2955   1.358       .  S
C2959      C2960   1.406       .  A
C2959      C2964   1.392       .  A
C2959      H2966   1.084       .  S
C2961      C2962   1.404       .  A
C2961      F2968   1.357       .  S
C2962      C2963   1.406       .  A
C2962      H2967   1.083       .  S
C2964      F2965   1.358       .  S
C2969      C2970   1.403       .  A
C2969      C2974   1.395       .  A
C2969      H2976   1.084       .  S
C2970      C2971   1.401       .  A
C2971      C2972   1.397       .  A
C2971      F2978   1.358       .  S
C2972      C2973   1.407       .  A
C2972      H2977   1.080       .  S
C2973      C2974   1.408       .  A
C2974      F2975   1.358       .  S
C2979      C2980   1.408       .  A
C2979      C2984   1.401       .  A
C2979      H2986   1.083       .  S
C2980      C2981   1.406       .  A
C2981      C2982   1.400       .  A
C2981      F2988   1.358       .  S
C2982      C2983   1.407       .  A
C2982      H2987   1.084       .  S
C2983      C2984   1.404       .  A
C2984      F2985   1.357       .  S
C2989      C2990   1.403       .  A
C2989      C2994   1.392       .  A
C2989      H2996   1.083       .  S
C2990      C2991   1.409       .  A
C2991      C2992   1.394       .  A
C2991      F2998   1.358       .  S
C2992      C2993   1.400       .  A
C2992      H2997   1.084       .  S
C2993      C2994   1.403       .  A
C2994      F2995   1.358       .  S
C2999      C3000   1.404       .  A
C2999      C3004   1.404       .  A
C2999      H3006   1.083       .  S
C3000      C3001   1.409       .  A
C3001      C3002   1.402       .  A
C3001      F3008   1.358       .  S
C3002      C3003   1.405       .  A
C3002      H3007   1.084       .  S
C3003      C3004   1.411       .  A
C3004      F3005   1.357       .  S
C3009      C3010   1.408       .  A
C3009      C3014   1.407       .  A
C3009      H3016   1.083       .  S
C3010      C3011   1.410       .  A
C3011      C3012   1.391       .  A
C3011      F3018   1.358       .  S
C3012      C3013   1.403       .  A
C3012      H3017   1.083       .  S
C3013      C3014   1.410       .  A
C3014      F3015   1.357       .  S
C3019      C3020   1.404       .  A
C3019      C3024   1.392       .  A
C3019      H3026   1.084       .  S
C3020      C3021   1.406       .  A
C3021      C3022   1.394       .  A
C3021      F3028   1.358       .  S
C3022      C3023   1.403       .  A
C3022      H3027   1.084       .  S
C3023      C3024   1.406       .  A
C3024      F3025   1.358       .  S
C3029      C3030   1.407       .  A
C3029      C3034   1.401       .  A
C3029      H3036   1.084       .  S
C3030      C3031   1.405       .  A
C3031      C3032   1.400       .  A
C3031      F3038   1.358       .  S
C3032      C3033   1.408       .  A
C3032      H3037   1.084       .  S
C3033      C3034   1.406       .  A
C3034      F3035   1.358       .  S
C3039      C3044   1.390       .  A
C3039      H3046   1.083       .  S
C3040      C3041   1.409       .  A
C3041      C3042   1.404       .  A
C3041      F3048   1.357       .  S
C3042      C3043   1.408   1_556  A
C3042      H3047   1.083       .  S
C3044      F3045   1.358       .  S
C3049      C3050   1.402       .  A
C3049      C3054   1.397       .  A
C3049      H3056   1.083       .  S
C3050      C3051   1.402       .  A
C3051      C3052   1.396       .  A
C3051      F3058   1.358       .  S
C3052      C3053   1.405       .  A
C3052      H3057   1.083       .  S
C3053      C3054   1.406       .  A
C3054      F3055   1.358       .  S
C3059      C3060   1.401       .  A
C3059      C3064   1.396       .  A
C3059      H3066   1.084       .  S
C3060      C3061   1.404       .  A
C3061      C3062   1.398       .  A
C3061      F3068   1.358       .  S
C3062      C3063   1.404       .  A
C3062      H3067   1.083       .  S
C3063      C3064   1.407       .  A
C3064      F3065   1.358       .  S
C3069      C3070   1.396       .  A
C3069      C3074   1.378       .  A
C3069      H3076   1.085       .  S
C3070      C3071   1.403       .  A
C3071      C3072   1.404       .  A
C3071      F3078   1.357       .  S
C3072      C3073   1.405       .  A
C3072      H3077   1.083       .  S
C3073      C3074   1.398       .  A
C3074      F3075   1.358       .  S
C3079      C3080   1.402       .  A
C3079      C3084   1.403       .  A
C3079      H3086   1.084       .  S
C3080      C3081   1.410       .  A
C3081      C3082   1.406       .  A
C3081      F3088   1.357       .  S
C3082      C3083   1.406       .  A
C3082      H3087   1.083       .  S
C3083      C3084   1.411       .  A
C3084      F3085   1.351       .  S
C3089      C3090   1.398       .  A
C3089      C3094   1.397       .  A
C3089      H3096   1.083       .  S
C3090      C3091   1.408       .  A
C3091      C3092   1.404       .  A
C3091      F3098   1.357       .  S
C3092      C3093   1.401       .  A
C3092      H3097   1.083       .  S
C3093      C3094   1.407       .  A
C3094      F3095   1.357       .  S
C3099      C3100   1.402       .  A
C3099      C3104   1.394       .  A
C3099      H3106   1.084       .  S
C3100      C3101   1.404       .  A
C3101      C3102   1.394       .  A
C3101      F3108   1.358       .  S
C3102      C3103   1.405       .  A
C3102      H3107   1.084       .  S
C3103      C3104   1.407       .  A
C3104      F3105   1.358       .  S
C3109      C3110   1.404       .  A
C3109      C3114   1.408       .  A
C3109      H3116   1.083       .  S
C3110      C3111   1.404       .  A
C3111      C3112   1.392       .  A
C3111      F3118   1.345       .  S
C3112      C3113   1.400       .  A
C3112      H3117   1.084       .  S
C3113      C3114   1.413       .  A
C3114      F3115   1.357       .  S
C3119      C3120   1.400       .  A
C3119      C3124   1.401       .  A
C3119      H3126   1.083       .  S
C3120      C3121   1.399       .  A
C3121      C3122   1.391       .  A
C3121      F3128   1.359       .  S
C3122      C3123   1.407       .  A
C3122      H3127   1.083       .  S
C3123      C3124   1.410       .  A
C3124      F3125   1.357       .  S
C3129      C3130   1.402       .  A
C3129      C3134   1.398       .  A
C3129      H3136   1.084       .  S
C3130      C3131   1.406       .  A
C3131      C3132   1.397       .  A
C3131      F3138   1.358       .  S
C3132      C3133   1.402       .  A
C3132      H3137   1.084       .  S
C3133      C3134   1.406       .  A
C3134      F3135   1.357       .  S
C3139      C3144   1.402       .  A
C3139      H3146   1.083       .  S
C3140      C3141   1.406       .  A
C3141      C3142   1.393       .  A
C3141      F3148   1.358       .  S
C3142      C3143   1.398       .  A
C3142      H3147   1.084       .  S
C3144      F3145   1.358       .  S
C3149      C3150   1.404       .  A
C3149      C3154   1.391       .  A
C3149      H3156   1.083       .  S
C3150      C3151   1.409       .  A
C3151      C3152   1.398       .  A
C3151      F3158   1.358       .  S
C3152      C3153   1.401       .  A
C3152      H3157   1.082       .  S
C3153      C3154   1.402       .  A
C3154      F3155   1.358       .  S
C3159      C3160   1.407       .  A
C3159      C3164   1.404       .  A
C3159      H3166   1.082       .  S
C3160      C3161   1.406       .  A
C3161      C3162   1.401       .  A
C3161      F3168   1.358       .  S
C3162      C3163   1.406       .  A
C3162      H3167   1.084       .  S
C3163      C3164   1.404       .  A
C3164      F3165   1.357       .  S
C3169      C3170   1.401       .  A
C3169      C3174   1.392       .  A
C3169      H3176   1.083       .  S
C3170      C3171   1.413       .  A
C3171      C3172   1.404       .  A
C3171      F3178   1.357       .  S
C3172      C3173   1.404       .  A
C3172      H3177   1.083       .  S
C3173      C3174   1.411       .  A
C3174      F3175   1.358       .  S
C3179      C3180   1.402       .  A
C3179      C3184   1.400       .  A
C3179      H3186   1.083       .  S
C3180      C3181   1.409       .  A
C3181      C3182   1.395       .  A
C3181      F3188   1.358       .  S
C3182      C3183   1.404       .  A
C3182      H3187   1.083       .  S
C3183      C3184   1.413       .  A
C3184      F3185   1.358       .  S
C3189      C3190   1.411       .  A
C3189      C3194   1.404       .  A
C3189      H3196   1.083       .  S
C3190      C3191   1.405       .  A
C3191      C3192   1.393       .  A
C3191      F3198   1.358       .  S
C3192      C3193   1.410       .  A
C3192      H3197   1.084       .  S
C3193      C3194   1.406       .  A
C3194      F3195   1.357       .  S
C3199      C3204   1.400       .  A
C3199      H3206   1.083       .  S
C3200      C3201   1.409       .  A
C3201      C3202   1.395       .  A
C3201      F3208   1.357       .  S
C3202      C3203   1.406   1_556  A
C3202      H3207   1.083   1_556  S
C3204      F3205   1.358       .  S
C3209      C3210   1.408       .  A
C3209      C3214   1.412       .  A
C3209      H3216   1.083       .  S
C3210      C3211   1.411       .  A
C3211      C3212   1.388       .  A
C3211      F3218   1.359       .  S
C3212      C3213   1.403       .  A
C3212      H3217   1.084       .  S
C3213      C3214   1.412       .  A
C3214      F3215   1.357       .  S
C3219      C3220   1.413       .  A
C3219      C3224   1.413       .  A
C3219      H3226   1.083       .  S
C3220      C3221   1.406       .  A
C3221      C3222   1.388       .  A
C3221      F3228   1.358       .  S
C3222      C3223   1.409       .  A
C3222      H3227   1.083       .  S
C3223      C3224   1.408       .  A
C3224      F3225   1.357       .  S
C3229      C3230   1.396       .  A
C3229      C3234   1.380       .  A
C3229      H3236   1.085       .  S
C3230      C3231   1.404       .  A
C3231      C3232   1.403       .  A
C3231      F3238   1.357       .  S
C3232      C3233   1.403       .  A
C3232      H3237   1.083       .  S
C3233      C3234   1.401       .  A
C3234      F3235   1.358       .  S
C3239      C3240   1.407       .  A
C3239      C3244   1.403       .  A
C3239      H3246   1.084       .  S
C3240      C3241   1.403       .  A
C3241      C3242   1.402       .  A
C3241      F3248   1.358       .  S
C3242      C3243   1.407       .  A
C3242      H3247   1.079       .  S
C3243      C3244   1.407       .  A
C3244      F3245   1.358       .  S
C3249      C3250   1.403       .  A
C3249      C3254   1.391       .  A
C3249      H3256   1.083       .  S
C3250      C3251   1.410       .  A
C3251      C3252   1.408       .  A
C3251      F3258   1.357       .  S
C3252      C3253   1.408       .  A
C3252      H3257   1.083       .  S
C3253      C3254   1.409       .  A
C3254      F3255   1.358       .  S
C3259      C3260   1.396       .  A
C3259      C3264   1.389       .  A
C3259      H3266   1.084       .  S
C3260      C3261   1.411       .  A
C3261      C3262   1.408       .  A
C3261      F3268   1.357       .  S
C3262      C3263   1.404       .  A
C3262      H3267   1.083       .  S
C3263      C3264   1.411       .  A
C3264      F3265   1.359       .  S
C3269      C3270   1.397       .  A
C3269      C3274   1.382       .  A
C3269      H3276   1.084       .  S
C3270      C3271   1.407       .  A
C3271      C3272   1.402       .  A
C3271      F3278   1.357       .  S
C3272      C3273   1.402       .  A
C3272      H3277   1.083       .  S
C3273      C3274   1.400       .  A
C3274      F3275   1.356       .  S
C3279      C3280   1.406       .  A
C3279      C3284   1.402       .  A
C3279      H3286   1.075       .  S
C3280      C3281   1.403       .  A
C3281      C3282   1.407       .  A
C3281      F3288   1.357       .  S
C3282      C3283   1.410       .  A
C3282      H3287   1.074       .  S
C3283      C3284   1.407       .  A
C3284      F3285   1.358       .  S
C3289      C3294   1.390       .  A
C3289      H3296   1.083       .  S
C3290      C3291   1.409   1_554  A
C3291      C3292   1.405       .  A
C3291      F3298   1.357       .  S
C3292      C3293   1.408       .  A
C3292      H3297   1.083       .  S
C3294      F3295   1.358       .  S
C3299      C3300   1.405       .  A
C3299      C3304   1.394       .  A
C3299      H3306   1.084       .  S
C3300      C3301   1.409       .  A
C3301      C3302   1.400       .  A
C3301      F3308   1.357       .  S
C3302      C3303   1.401       .  A
C3302      H3307   1.083       .  S
C3303      C3304   1.402       .  A
C3304      F3305   1.359       .  S
C3309      C3310   1.400       .  A
C3309      C3314   1.401       .  A
C3309      H3316   1.083       .  S
C3310      C3311   1.401       .  A
C3311      C3312   1.396       .  A
C3311      F3318   1.358       .  S
C3312      C3313   1.408       .  A
C3312      H3317   1.083       .  S
C3313      C3314   1.412       .  A
C3314      F3315   1.357       .  S
C3319      C3320   1.405       .  A
C3319      C3324   1.408       .  A
C3319      H3326   1.083       .  S
C3321      C3322   1.386       .  A
C3321      F3328   1.359       .  S
C3322      H3327   1.084       .  S
C3323      C3324   1.408       .  A
C3324      F3325   1.357       .  S
