geometry optimzed in LAMMPS
_audit_creation_date              2020-12-01 
_audit_creation_method            'lammps2cif' 
_symmetry_space_group_name_H-M    'P1' 
_symmetry_Int_Tables_number       1 
_symmetry_cell_setting            triclinic 
loop_ 
_symmetry_equiv_pos_as_xyz 
  x,y,z 
_cell_length_a                    51.95932964 
_cell_length_b                    52.067037060470426 
_cell_length_c                    32.519094578486964 
_cell_angle_alpha                 89.81002221189851 
_cell_angle_beta                  90.24959840835216 
_cell_angle_gamma                 120.2933469547853 
loop_ 
_atom_site_label 
_atom_site_type_symbol 
_atom_site_fract_x 
_atom_site_fract_y 
_atom_site_fract_z 
_atom_site_charge 
O1          O  0.83086685  0.28044825  0.16676784    -0.81800
O2          O  0.83147474  0.22320214  0.32717199    -0.66500
O3          O  0.82590604  0.27568597  0.25224209    -1.13100
C4          C  0.93050715  0.33043093  0.27077384     1.05100
O5          O  0.85724565  0.26060780  0.36931827    -0.79700
O6          O  0.87294866  0.31660517  0.34515090    -0.67300
Ni7        Ni  0.79949971  0.25907024  0.20630532     1.34900
C8          C  0.87073245  0.33404467  0.31991728     0.83800
O9          O  0.78539655  0.22353954  0.29422641    -0.80300
O10         O  0.76582342  0.23663064  0.24249608    -0.90500
C11         C  0.84436205  0.23296190  0.36112924     0.83400
O12         O  0.80262265  0.22437787  0.19592585    -0.68700
O13         O  0.92293675  0.32219515  0.30804729    -0.88000
C14         C  0.81715354  0.21388606  0.21370027     0.84200
C15         C  0.76321919  0.22213058  0.27548148     1.05800
H16         H  0.87845096  0.26362581  0.27492916     0.37600
O17         O  0.86937532  0.27427813  0.28630764    -1.10700
O18         O  0.86999419  0.33012589  0.28101915    -0.67300
Ni19       Ni  0.86844787  0.29942101  0.24493006     1.26300
O20         O  0.82995240  0.22361576  0.24818593    -0.67600
O21         O  0.91153936  0.32183485  0.24112091    -0.79900
C22         C  0.85143650  0.30768787  0.16655874     0.83600
O23         O  0.86525433  0.32107753  0.19929611    -0.67000
Ni24       Ni  0.88901904  0.29121145  0.33672629     1.27400
Ni25       Ni  0.82748135  0.24855855  0.28973520     1.26100
H26         H  0.81927534  0.28722606  0.26735442     0.38100
O27         O  0.93861366  0.17189838  0.67389195    -0.81800
O28         O  0.88058843  0.17859862  0.51534134    -0.66500
O29         O  0.93280775  0.17025724  0.58807273    -1.13100
C30         C  0.98901786  0.27466442  0.57330717     1.05100
O31         O  0.91784878  0.20457036  0.47286389    -0.79700
O32         O  0.97324126  0.21665632  0.49703287    -0.67300
Ni33       Ni  0.91586786  0.14242851  0.63250930     1.34900
C34         C  0.99118541  0.21477036  0.52181341     0.83800
O35         O  0.87977653  0.13132606  0.54492852    -0.80300
O36         O  0.89196208  0.10991571  0.59489621    -0.90500
C37         C  0.89019125  0.19164989  0.48147915     0.83400
O38         O  0.88236657  0.14718037  0.64545750    -0.68700
O39         O  0.98170115  0.26725748  0.53573903    -0.88000
C40         C  0.87214604  0.16236424  0.62889498     0.84200
C41         C  0.87763656  0.10840417  0.56210567     1.05800
H42         H  0.92164528  0.22392807  0.56803965     0.37600
O43         O  0.93203751  0.21467486  0.55632371    -1.10700
O44         O  0.98788594  0.21485270  0.56080708    -0.67300
Ni45       Ni  0.95685402  0.21266541  0.59727880     1.26300
O46         O  0.88137689  0.17522818  0.59435978    -0.67600
O47         O  0.97938306  0.25559085  0.60276588    -0.79900
C48         C  0.96487225  0.19443682  0.67521172     0.83600
O49         O  0.97822545  0.20875072  0.64275650    -0.67000
Ni50       Ni  0.94957293  0.23466436  0.50640320     1.27400
Ni51       Ni  0.90570546  0.17312630  0.55151161     1.26100
H52         H  0.94426071  0.16395933  0.57207047     0.38100
O53         O  0.88595762  0.39140695  0.00526159    -0.81800
O54         O  0.95161674  0.45053735  0.84809624    -0.66500
O55         O  0.88996103  0.39848686  0.91992605    -1.13100
C56         C  0.93904813  0.34275960  0.90547520     1.05100
O57         O  0.93668243  0.41226108  0.80703875    -0.79700
O58         O  0.89733474  0.35558081  0.82833091    -0.67300
Ni59       Ni  0.87948977  0.41485464  0.96496007     1.34900
C60         C  0.87574270  0.34008040  0.85240145     0.83800
O61         O  0.90575087  0.45237329  0.87906941    -0.80300
O62         O  0.87166423  0.43971484  0.92842664    -0.90500
C63         C  0.95408903  0.43962932  0.81484255     0.83400
O64         O  0.91822031  0.44746991  0.97852154    -0.68700
O65         O  0.94245419  0.35205354  0.86829071    -0.88000
C66         C  0.94374130  0.45690642  0.96270903     0.84200
C67         C  0.88525606  0.45480414  0.89656912     1.05800
H68         H  0.95422392  0.40836391  0.90148110     0.37600
O69         O  0.93476092  0.39848682  0.88867284    -1.10700
O70         O  0.87797153  0.34426193  0.89115545    -0.67300
Ni71       Ni  0.90719091  0.37353315  0.92850650     1.26300
O72         O  0.94722278  0.44852650  0.92760469    -0.67600
O73         O  0.92621421  0.34986787  0.93323610    -0.79900
C74         C  0.88047256  0.36461296  0.00570833     0.83600
O75         O  0.88089696  0.35165712  0.97278451    -0.67000
Ni76       Ni  0.93872195  0.38215167  0.83880928     1.27400
Ni77       Ni  0.92049200  0.42557020  0.88414686     1.26100
H78         H  0.87207702  0.38767033  0.90357129     0.38100
O79         O  0.10810892  0.50586028  0.50023715    -0.81800
O80         O  0.04976557  0.50190238  0.66633848    -0.66500
O81         O  0.10585650  0.50846510  0.58643262    -1.13100
C82         C  0.05327168  0.40279737  0.60241441     1.05100
O83         O  0.06405970  0.47629594  0.70360139    -0.79700
O84         O  0.09922827  0.45623361  0.67662056    -0.67300
Ni85       Ni  0.11526455  0.53547335  0.54122843     1.34900
C86         C  0.11961255  0.46171907  0.65086732     0.83800
O87         O  0.09612543  0.54851665  0.63346727    -0.80300
O88         O  0.12418863  0.56854239  0.57743305    -0.90500
C89         C  0.04757212  0.48750800  0.69863044     0.83400
O90         O  0.07603374  0.52855773  0.53039225    -0.68700
O91         O  0.05126924  0.40896945  0.63983367    -0.88000
C92         C  0.05175219  0.51576273  0.55035714     0.84200
C93         C  0.11427444  0.57080897  0.61228016     1.05800
H94         H  0.04138523  0.45617443  0.60956597     0.37600
O95         O  0.06124261  0.46465571  0.62087883    -1.10700
O96         O  0.11666856  0.46479352  0.61249518    -0.67300
Ni97       Ni  0.08639834  0.46581269  0.57830374     1.26300
O98         O  0.04988912  0.50568247  0.58665760    -0.67600
O99         O  0.06559039  0.42268649  0.57413751    -0.79900
C100        C  0.11104815  0.48303000  0.49923244     0.83600
O101        O  0.11006206  0.46875954  0.53168544    -0.67000
Ni102      Ni  0.05816651  0.44348758  0.67018192     1.27400
Ni103      Ni  0.07819964  0.50659701  0.62644127     1.26100
H104        H  0.12449436  0.51492582  0.60064730     0.38100
O105        O  0.05306705  0.22887492  0.83351946    -0.81800
O106        O  0.11052804  0.29242861  0.99299930    -0.66500
O107        O  0.05896784  0.23196165  0.91951148    -1.13100
C108        C  0.00145100  0.27794875  0.93678740     1.05100
O109        O  0.07253946  0.27681049  0.03527902    -0.79700
O110        O  0.01750930  0.23489692  0.01073022    -0.67300
Ni111      Ni  0.07557198  0.22149053  0.87483686     1.34900
C112        C  0.00001270  0.21558832  0.98518991     0.83800
O113        O  0.11263541  0.24726038  0.96089571    -0.80300
O114        O  0.09903105  0.21241769  0.91261571    -0.90500
C115        C  0.10014902  0.29334696  0.02755114     0.83400
O116        O  0.10945397  0.25996911  0.86302355    -0.68700
O117        O  0.00924858  0.27813130  0.97429594    -0.88000
C118        C  0.11958328  0.28544856  0.87938525     0.84200
C119        C  0.11420848  0.22600372  0.94451172     1.05800
H120        H  0.06877722  0.29603931  0.94143591     0.37600
O121        O  0.05883029  0.27609040  0.95255161    -1.10700
O122        O  0.00371349  0.21953245  0.94643483    -0.67300
Ni123      Ni  0.03443420  0.24958013  0.91120118     1.26300
O124        O  0.10970887  0.28920437  0.91318829    -0.67600
O125        O  0.01117949  0.26899959  0.90709869    -0.79900
C126        C  0.02662832  0.22465117  0.83289051     0.83600
O127        O  0.01329109  0.22465729  0.86566808    -0.67000
Ni128      Ni  0.04119268  0.27679609  0.00303305     1.27400
Ni129      Ni  0.08592820  0.26199780  0.95604009     1.26100
H130        H  0.04784769  0.21403598  0.93557500     0.38100
O131        O  0.16272780  0.44856131  0.34027935    -0.81800
O132        O  0.15421313  0.38409176  0.17996852    -0.66500
O133        O  0.16408318  0.44385371  0.25473149    -1.13100
C134        C  0.05849661  0.39379903  0.24115563     1.05100
O135        O  0.12928576  0.39761987  0.13913441    -0.79700
O136        O  0.11173134  0.43602921  0.16409281    -0.67300
Ni137      Ni  0.19168921  0.45401132  0.29935230     1.34900
C138        C  0.11847265  0.45756702  0.18832633     0.83800
O139        O  0.20208555  0.42985376  0.21051709    -0.80300
O140        O  0.22398539  0.46136436  0.26266596    -0.90500
C141        C  0.14183814  0.38243168  0.14594832     0.83400
O142        O  0.18463862  0.41498272  0.31223531    -0.68700
O143        O  0.06405189  0.39049419  0.20391365    -0.88000
C144        C  0.17027768  0.38996529  0.29430514     0.84200
C145        C  0.22521719  0.44916472  0.22937777     1.05800
H146        H  0.10979773  0.37952166  0.23535848     0.37600
O147        O  0.11890075  0.39903411  0.22289760    -1.10700
O148        O  0.12126828  0.45563297  0.22710768    -0.67300
Ni149      Ni  0.12168683  0.42613102  0.26365474     1.26300
O150        O  0.15835823  0.38694936  0.25910409    -0.67600
O151        O  0.07874549  0.40670712  0.26888105    -0.79900
C152        C  0.14055565  0.45262323  0.34125686     0.83600
O153        O  0.12627745  0.45171243  0.30875379    -0.67000
Ni154      Ni  0.09766252  0.39491580  0.17336859     1.27400
Ni155      Ni  0.16041149  0.41416894  0.21733312     1.26100
H156        H  0.17096182  0.46193852  0.23905423     0.38100
O157        O  0.12984494  0.74692135  0.64123842    -0.81800
O158        O  0.12917842  0.68661261  0.80847771    -0.66500
O159        O  0.11977830  0.73148269  0.72351730    -1.13100
C160        C  0.22557139  0.78677933  0.72678439     1.05100
O161        O  0.16347023  0.72780330  0.84006200    -0.79700
O162        O  0.18880740  0.78424551  0.81024928    -0.67300
Ni163      Ni  0.10085710  0.71388241  0.67336558     1.34900
C164        C  0.17098941  0.79212876  0.79587940     0.83800
O165        O  0.08071449  0.68305941  0.76890105    -0.80300
O166        O  0.06950479  0.67992189  0.70158514    -0.90500
C167        C  0.14336036  0.70027042  0.84089297     0.83400
O168        O  0.12284474  0.69440373  0.66395563    -0.68700
O169        O  0.22497168  0.77241785  0.75913565    -0.88000
C170        C  0.12554701  0.67648669  0.68750951     0.84200
C171        C  0.06187786  0.67277371  0.73911954     1.05800
H172        H  0.17258391  0.72240896  0.73766397     0.37600
O173        O  0.16546338  0.73284058  0.75433494    -1.10700
O174        O  0.15668501  0.78141464  0.76279046    -0.67300
Ni175      Ni  0.16099516  0.75944970  0.71917750     1.26300
O176        O  0.12325361  0.67745898  0.72656201    -0.67600
O177        O  0.20267095  0.78709898  0.71368977    -0.79900
C178        C  0.14097369  0.77418936  0.65050408     0.83600
O179        O  0.15395951  0.78416952  0.68435760    -0.67000
Ni180      Ni  0.19315551  0.75012691  0.79847496     1.27400
Ni181      Ni  0.12348640  0.70722117  0.76365381     1.26100
H182        H  0.10939080  0.74066235  0.73544513     0.38100
O183        O  0.07299371  0.81193593  0.53554320    -0.81800
O184        O  0.01463021  0.79929006  0.36448131    -0.66500
O185        O  0.05899594  0.79549354  0.45466884    -1.13100
C186        C  0.11579775  0.90103932  0.44291294     1.05100
O187        O  0.05435848  0.83642880  0.33332532    -0.79700
O188        O  0.11021797  0.86150022  0.36311776    -0.67300
Ni189      Ni  0.04150711  0.77898063  0.50593954     1.34900
C190        C  0.11958100  0.84526336  0.37872206     0.83800
O191        O  0.01142902  0.75327109  0.41094455    -0.80300
O192        O  0.00980434  0.74452631  0.47912326    -0.90500
C193        C  0.02840777  0.81334907  0.33202576     0.83400
O194        O  0.01744049  0.79686473  0.51077807    -0.68700
O195        O  0.09993810  0.89944231  0.41180878    -0.88000
C196        C  0.00012139  0.79823150  0.48441491     0.84200
C197        C  0.00260486  0.73543041  0.44211230     1.05800
H198        H  0.04880801  0.84614294  0.43461743     0.37600
O199        O  0.05979241  0.83920313  0.41879284    -1.10700
O200        O  0.10960812  0.83163268  0.41276709    -0.67300
Ni201      Ni  0.08689006  0.83675045  0.45570217     1.26300
O202        O  0.00389376  0.79685259  0.44582591    -0.67600
O203        O  0.11462843  0.87816620  0.45851361    -0.79900
C204        C  0.10026017  0.82085661  0.52830456     0.83600
O205        O  0.11122184  0.83150279  0.49361833    -0.67000
Ni206      Ni  0.07663181  0.86648692  0.37423873     1.27400
Ni207      Ni  0.03489814  0.79653809  0.41219785     1.26100
H208        H  0.06859861  0.78490371  0.44488972     0.38100
O209        O  0.86272013  0.60865335  0.86960268    -0.81800
O210        O  0.86587878  0.55530704  0.70218394    -0.66500
O211        O  0.87470184  0.60952806  0.78648844    -1.13100
C212        C  0.76874575  0.56048980  0.77877120     1.05100
O213        O  0.83331310  0.56353707  0.66882190    -0.79700
O214        O  0.81058683  0.59660008  0.69602353    -0.67300
Ni215      Ni  0.89543947  0.61343165  0.83637762     1.34900
C216        C  0.82587895  0.62161641  0.71373681     0.83800
O217        O  0.91414903  0.59928137  0.74276593    -0.80300
O218        O  0.92957379  0.61903608  0.80615740    -0.90500
C219        C  0.85289842  0.55559277  0.66901585     0.83400
O220        O  0.88323355  0.57277768  0.84583835    -0.68700
O221        O  0.76996929  0.54901679  0.74460793    -0.88000
C222        C  0.87532219  0.55091712  0.82182210     0.84200
C223        C  0.93465029  0.61336826  0.76982654     1.05800
H224        H  0.82132278  0.54761954  0.76918343     0.37600
O225        O  0.82921060  0.56593562  0.75375658    -1.10700
O226        O  0.83683929  0.62402541  0.74961219    -0.67300
Ni227      Ni  0.83331935  0.59561815  0.79113529     1.26300
O228        O  0.86985249  0.55191470  0.78374582    -0.67600
O229        O  0.79174436  0.58065139  0.79687163    -0.79900
C230        C  0.85071574  0.62447060  0.86435865     0.83600
O231        O  0.83967840  0.62495232  0.82994942    -0.67000
Ni232      Ni  0.80292902  0.55715919  0.70822259     1.27400
Ni233      Ni  0.87132424  0.58180465  0.74644186     1.26100
H234        H  0.88437867  0.62894875  0.77371308     0.38100
O235        O  0.92072337  0.73086069  0.97296674    -0.81800
O236        O  0.98306439  0.78642552  0.13998964    -0.66500
O237        O  0.93693174  0.73378432  0.05452086    -1.13100
C238        C  0.87999743  0.78247858  0.06250045     1.05100
O239        O  0.94342121  0.78295144  0.17170465    -0.79700
O240        O  0.88681408  0.75168569  0.14404073    -0.67300
Ni241      Ni  0.95353673  0.73256301  0.00350572     1.34900
C242        C  0.87821621  0.72572074  0.13049577     0.83800
O243        O  0.98592229  0.74232529  0.09806055    -0.80300
O244        O  0.98676891  0.73270943  0.03073038    -0.90500
C245        C  0.96951785  0.78633535  0.17269743     0.83400
O246        O  0.97578780  0.77441637  0.99459572    -0.68700
O247        O  0.89668478  0.79794403  0.09232872    -0.88000
C248        C  0.99296275  0.79488053  0.01904174     0.84200
C249        C  0.99532430  0.73330193  0.06793132     1.05800
H250        H  0.94696371  0.79548495  0.06924560     0.37600
O251        O  0.93651164  0.77805517  0.08641450    -1.10700
O252        O  0.88770989  0.72105231  0.09702679    -0.67300
Ni253      Ni  0.90897113  0.74692725  0.05194546     1.26300
O254        O  0.99125785  0.79115140  0.05802319    -0.67600
O255        O  0.88097169  0.76039060  0.04788498    -0.79900
C256        C  0.89355748  0.71367953  0.98256124     0.83600
O257        O  0.88385468  0.71524686  0.01730755    -0.67000
Ni258      Ni  0.92059228  0.78974288  0.13044409     1.27400
Ni259      Ni  0.96180049  0.76108280  0.09466205     1.26100
H260        H  0.92762147  0.71399920  0.06622381     0.38100
O261        O  0.05608020  0.59825440  0.19982255    -0.81800
O262        O  0.11435397  0.65550036  0.03417430    -0.66500
O263        O  0.05870554  0.61083826  0.11733274    -1.13100
C264        C  0.10632646  0.55267771  0.11515063     1.05100
O265        O  0.10816932  0.61501134  0.00242017    -0.79700
O266        O  0.07452578  0.55874537  0.03103391    -0.67300
Ni267      Ni  0.05545162  0.62853633  0.16644352     1.34900
C268        C  0.04881591  0.54956778  0.04613002     0.83800
O269        O  0.07006558  0.66012861  0.07151147    -0.80300
O270        O  0.05352220  0.65934456  0.13579069    -0.90500
C271        C  0.11516090  0.64233321  0.00175785     0.83400
O272        O  0.09687388  0.65408025  0.17749470    -0.68700
O273        O  0.12028668  0.56691072  0.08285291    -0.88000
C274        C  0.11880802  0.66832732  0.15355885     0.84200
C275        C  0.05793092  0.66861515  0.09853753     1.05800
H276        H  0.12048862  0.61903863  0.10464761     0.37600
O277        O  0.10278065  0.60862069  0.08786615    -1.10700
O278        O  0.04490097  0.55914565  0.08008009    -0.67300
Ni279      Ni  0.07159461  0.58270099  0.12350711     1.26300
O280        O  0.11691841  0.66359229  0.11492306    -0.67600
O281        O  0.08523499  0.55506460  0.13068234    -0.79900
C282        C  0.03881137  0.57067379  0.19307578     0.83600
O283        O  0.04017344  0.55918556  0.15972376    -0.67000
Ni284      Ni  0.11337697  0.59142171  0.04426452     1.27400
Ni285      Ni  0.08720942  0.63477374  0.07776168     1.26100
H286        H  0.03933084  0.60134337  0.10426724     0.38100
O287        O  0.93568643  0.53728949  0.31077005    -0.81800
O288        O  0.87943288  0.53855606  0.47642289    -0.66500
O289        O  0.93479156  0.54808604  0.39329379    -1.13100
C290        C  0.88535425  0.44165222  0.39788446     1.05100
O291        O  0.88643210  0.50465445  0.50891713    -0.79700
O292        O  0.91980393  0.48235181  0.48215062    -0.67300
Ni293      Ni  0.93980347  0.56960377  0.34393128     1.34900
C294        C  0.94491605  0.49714458  0.46458072     0.83800
O295        O  0.92444256  0.58754766  0.43739981    -0.80300
O296        O  0.94468815  0.60329171  0.37433010    -0.90500
C297        C  0.87898526  0.52454179  0.50898218     0.83400
O298        O  0.89926030  0.55742568  0.33293070    -0.68700
O299        O  0.87334476  0.44274415  0.43157763    -0.88000
C300        C  0.87686214  0.54976761  0.35587466     0.84200
C301        C  0.93833331  0.60814654  0.41032279     1.05800
H302        H  0.87210219  0.49490811  0.40789757     0.37600
O303        O  0.89021239  0.50233668  0.42383337    -1.10700
O304        O  0.94787250  0.50890360  0.42929235    -0.67300
Ni305      Ni  0.92043786  0.50660300  0.38721785     1.26300
O306        O  0.87729398  0.54430990  0.39415611    -0.67600
O307        O  0.90502806  0.46501166  0.37982341    -0.79900
C308        C  0.95227680  0.52627559  0.31684471     0.83600
O309        O  0.95087573  0.51328386  0.35012679    -0.67000
Ni310      Ni  0.88066911  0.47513115  0.46858389     1.27400
Ni311      Ni  0.90645567  0.54453352  0.43246669     1.26100
H312        H  0.95400751  0.55732188  0.40679320     0.38100
O313        O  0.72088975  0.56592174  0.16925052    -0.81800
O314        O  0.77561530  0.62739403  0.32828452    -0.66500
O315        O  0.72641129  0.56677468  0.25399616    -1.13100
C316        C  0.66420965  0.60918465  0.27177511     1.05100
O317        O  0.73680050  0.61061838  0.36859480    -0.79700
O318        O  0.68032813  0.57194155  0.34613056    -0.67300
Ni319      Ni  0.74411135  0.55837225  0.20875408     1.34900
C320        C  0.66585696  0.54971581  0.32268865     0.83800
O321        O  0.78025819  0.58366650  0.29565130    -0.80300
O322        O  0.76888822  0.55030111  0.24524167    -0.90500
C323        C  0.76433296  0.62817993  0.36206054     0.83400
O324        O  0.77702441  0.59733299  0.19797978    -0.68700
O325        O  0.67666347  0.61607086  0.30708889    -0.88000
C326        C  0.78556077  0.62238019  0.21458655     0.84200
C327        C  0.78360164  0.56393332  0.27747949     1.05800
H328        H  0.73255548  0.62878848  0.27354350     0.37600
O329        O  0.72339792  0.60942361  0.28643568    -1.10700
O330        O  0.67122042  0.55074215  0.28422777    -0.67300
Ni331      Ni  0.69892747  0.58120715  0.24655527     1.26300
O332        O  0.77530048  0.62515561  0.24859405    -0.67600
O333        O  0.67163390  0.59673978  0.24357231    -0.79900
C334        C  0.69300125  0.55669079  0.16836944     0.83600
O335        O  0.67877794  0.55481483  0.20130169    -0.67000
Ni336      Ni  0.70701950  0.61298040  0.33636133     1.27400
Ni337      Ni  0.75210380  0.59698668  0.29076953     1.26100
H338        H  0.71646107  0.54855973  0.26972367     0.38100
O339        O  0.82986764  0.78497571  0.67248449    -0.81800
O340        O  0.82080351  0.71899820  0.51629752    -0.66500
O341        O  0.83244186  0.78091508  0.58754592    -1.13100
C342        C  0.72694263  0.73505985  0.57139510     1.05100
O343        O  0.79858971  0.73518007  0.47503341    -0.79700
O344        O  0.78020148  0.77382420  0.49568568    -0.67300
Ni345      Ni  0.85978697  0.79120206  0.63214041     1.34900
C346        C  0.78659764  0.79558720  0.51939208     0.83800
O347        O  0.86970806  0.76472065  0.54572642    -0.80300
O348        O  0.89222893  0.79901742  0.59457228    -0.90500
C349        C  0.80814874  0.71752083  0.48261280     0.83400
O350        O  0.85375997  0.75251612  0.64608205    -0.68700
O351        O  0.73271346  0.72918212  0.53570630    -0.88000
C352        C  0.83770915  0.72689722  0.63029164     0.84200
C353        C  0.89318338  0.78576454  0.56199088     1.05800
H354        H  0.77666993  0.71747168  0.57002225     0.37600
O355        O  0.78657428  0.73674451  0.55682274    -1.10700
O356        O  0.79116156  0.79466922  0.55783917    -0.67300
Ni357      Ni  0.79018924  0.76514701  0.59571153     1.26300
O358        O  0.82479539  0.72321604  0.59565570    -0.67600
O359        O  0.74702441  0.74790282  0.59958511    -0.79900
C360        C  0.80904732  0.79128117  0.67269530     0.83600
O361        O  0.79614160  0.79189673  0.63960297    -0.67000
Ni362      Ni  0.76633699  0.73281351  0.50662280     1.27400
Ni363      Ni  0.82799956  0.75013256  0.55217813     1.26100
H364        H  0.83998961  0.79868189  0.57094994     0.38100
O365        O  0.77134981  0.83716102  0.83284810    -0.81800
O366        O  0.70929456  0.83083635  0.99175526    -0.66500
O367        O  0.77029098  0.84133814  0.91835206    -1.13100
C368        C  0.72491079  0.73764121  0.93934290     1.05100
O369        O  0.72824535  0.81158793  0.03361882    -0.79700
O370        O  0.76965623  0.79851701  0.01052785    -0.67300
Ni371      Ni  0.77951270  0.86771824  0.87276537     1.34900
C372        C  0.78849363  0.79972111  0.98494135     0.83800
O373        O  0.75371602  0.87928717  0.95784984    -0.80300
O374        O  0.78887934  0.90058700  0.90948589    -0.90500
C375        C  0.70927053  0.81950568  0.02613997     0.83400
O376        O  0.74069197  0.86205451  0.86144224    -0.68700
O377        O  0.72619191  0.74596567  0.97666116    -0.88000
C378        C  0.71525667  0.84452645  0.87674130     0.84200
C379        C  0.77542334  0.90207139  0.94140329     1.05800
H380        H  0.70704583  0.78558649  0.94213290     0.37600
O381        O  0.72717193  0.79653976  0.95271869    -1.10700
O382        O  0.78423785  0.79935830  0.94622022    -0.67300
Ni383      Ni  0.75347916  0.79898116  0.91123989     1.26300
O384        O  0.71209740  0.83167644  0.91121133    -0.67600
O385        O  0.73433417  0.75589591  0.90870700    -0.79900
C386        C  0.77852654  0.81709069  0.83281895     0.83600
O387        O  0.77838248  0.80333900  0.86541069    -0.67000
Ni388      Ni  0.72767864  0.77951873  0.00386524     1.27400
Ni389      Ni  0.74000129  0.83764394  0.95462896     1.26100
H390        H  0.78842383  0.84890551  0.93426726     0.38100
O391        O  0.55074686  0.72480163  0.33616168    -0.81800
O392        O  0.61565655  0.77839631  0.17602470    -0.66500
O393        O  0.55469808  0.72995336  0.25073432    -1.13100
C394        C  0.59890830  0.66938806  0.23767410     1.05100
O395        O  0.59942894  0.73915747  0.13636279    -0.79700
O396        O  0.56030819  0.68378889  0.16130079    -0.67300
Ni397      Ni  0.54448152  0.74756167  0.29409688     1.34900
C398        C  0.53824596  0.67023709  0.18522790     0.83800
O399        O  0.57112465  0.78282783  0.20639177    -0.80300
O400        O  0.53677147  0.77141801  0.25512049    -0.90500
C401        C  0.61616775  0.76685988  0.14219236     0.83400
O402        O  0.58337020  0.78046441  0.30609272    -0.68700
O403        O  0.60479121  0.68058039  0.20161037    -0.88000
C404        C  0.60888963  0.78946736  0.29043058     0.84200
C405        C  0.55022715  0.78534569  0.22233815     1.05800
H406        H  0.61768314  0.73725715  0.23267173     0.37600
O407        O  0.59823154  0.72754559  0.21997214    -1.10700
O408        O  0.53993724  0.67508593  0.22379664    -0.67300
Ni409      Ni  0.57017610  0.70357869  0.26043567     1.26300
O410        O  0.61245348  0.77973559  0.25633717    -0.67600
O411        O  0.58670111  0.67732326  0.26551441    -0.79900
C412        C  0.54373782  0.69750630  0.33736139     0.83600
O413        O  0.54359995  0.68339075  0.30526750    -0.67000
Ni414      Ni  0.60161304  0.71017174  0.17069486     1.27400
Ni415      Ni  0.58507753  0.75542751  0.21376111     1.26100
H416        H  0.53671433  0.71939403  0.23451254     0.38100
O417        O  0.50026237  0.61539489  0.50070667    -0.81800
O418        O  0.50373334  0.55983190  0.66139863    -0.66500
O419        O  0.49525719  0.61000456  0.58532811    -1.13100
C420        C  0.60031792  0.66958638  0.60569854     1.05100
O421        O  0.52589900  0.59907842  0.70087360    -0.79700
O422        O  0.54554803  0.65544551  0.67828128    -0.67300
Ni423      Ni  0.46892395  0.59315076  0.53995864     1.34900
C424        C  0.53844864  0.66976300  0.65357927     0.83800
O425        O  0.45649933  0.55704228  0.62680035    -0.80300
O426        O  0.43551911  0.56996144  0.57676793    -0.90500
C427        C  0.51622716  0.57165674  0.69494503     0.83400
O428        O  0.47366507  0.55951887  0.52953166    -0.68700
O429        O  0.59398315  0.65790131  0.64152637    -0.88000
C430        C  0.48895669  0.54977492  0.54699350     0.84200
C431        C  0.43384397  0.55579861  0.60987959     1.05800
H432        H  0.54982619  0.60186901  0.60749625     0.37600
O433        O  0.53995300  0.61156072  0.61947570    -1.10700
O434        O  0.53544815  0.66452833  0.61506268    -0.67300
Ni435      Ni  0.53761945  0.63624526  0.57866885     1.26300
O436        O  0.50192019  0.55953035  0.58140472    -0.67600
O437        O  0.58073802  0.66223220  0.57679800    -0.79900
C438        C  0.51979775  0.64305549  0.49988732     0.83600
O439        O  0.53294986  0.65698786  0.53275596    -0.67000
Ni440      Ni  0.55936375  0.62823825  0.67002806     1.27400
Ni441      Ni  0.49824727  0.58381399  0.62283875     1.26100
H442        H  0.48753725  0.62048380  0.60070738     0.38100
O443        O  0.60978588  0.50633858  0.00558965    -0.81800
O444        O  0.55454516  0.51891160  0.84934129    -0.66500
O445        O  0.60385226  0.50540604  0.92061702    -1.13100
C446        C  0.66494669  0.61064798  0.90863131     1.05100
O447        O  0.59333728  0.54191074  0.80863149    -0.79700
O448        O  0.64914082  0.55710648  0.83040254    -0.67300
Ni449      Ni  0.58627143  0.47733520  0.96409327     1.34900
C450        C  0.66321133  0.54888525  0.85375784     0.83800
O451        O  0.54978879  0.46943141  0.87826516    -0.80300
O452        O  0.56198702  0.44590385  0.92521957    -0.90500
C453        C  0.56587609  0.53179747  0.81585210     0.83400
O454        O  0.55323713  0.48286150  0.97715736    -0.68700
O455        O  0.65521722  0.60580864  0.87163056    -0.88000
C456        C  0.54409162  0.49942153  0.96209098     0.84200
C457        C  0.54771370  0.44581669  0.89298651     1.05800
H458        H  0.59753066  0.56196961  0.90436139     0.37600
O459        O  0.60669179  0.55200626  0.89109846    -1.10700
O460        O  0.65907273  0.54604941  0.89257554    -0.67300
Ni461      Ni  0.63081111  0.54726851  0.93034947     1.26300
O462        O  0.55466365  0.51409752  0.92900878    -0.67600
O463        O  0.65675744  0.59008669  0.93609545    -0.79900
C464        C  0.63743351  0.52612371  0.00634365     0.83600
O465        O  0.65135267  0.54033996  0.97415252    -0.67000
Ni466      Ni  0.62400474  0.57297813  0.84158522     1.27400
Ni467      Ni  0.57794943  0.51086291  0.88534239     1.26100
H468        H  0.61393677  0.49798772  0.90373276     0.38100
O469        O  0.46666754  0.41297464  0.30668662    -0.81800
O470        O  0.45939112  0.35251102  0.47181055    -0.66500
O471        O  0.45353066  0.40033134  0.38857528    -1.13100
C472        C  0.55948504  0.45617302  0.40003690     1.05100
O473        O  0.49252792  0.39257700  0.50672628    -0.79700
O474        O  0.51664909  0.44877016  0.48112374    -0.67300
Ni475      Ni  0.43321641  0.38429327  0.33821944     1.34900
C476        C  0.50314097  0.45987678  0.46220636     0.83800
O477        O  0.41241506  0.35042893  0.43113697    -0.80300
O478        O  0.39842648  0.35532924  0.36724351    -0.90500
C479        C  0.47220158  0.36531653  0.50515562     0.83400
O480        O  0.44539724  0.35587263  0.32862275    -0.68700
O481        O  0.55733812  0.44259337  0.43381054    -0.88000
C482        C  0.45234321  0.34100139  0.35253867     0.84200
C483        C  0.39236570  0.34423859  0.40349440     1.05800
H484        H  0.50551317  0.38970908  0.40664408     0.37600
O485        O  0.49792965  0.40036381  0.42190522    -1.10700
O486        O  0.49253617  0.45188063  0.42619616    -0.67300
Ni487      Ni  0.49530678  0.42705647  0.38467837     1.26300
O488        O  0.45626737  0.34633423  0.39092329    -0.67600
O489        O  0.53708077  0.45283191  0.37979495    -0.79900
C490        C  0.47759052  0.44054211  0.31332589     0.83600
O491        O  0.49031362  0.45169156  0.34695767    -0.67000
Ni492      Ni  0.52362871  0.41690195  0.46848406     1.27400
Ni493      Ni  0.45544212  0.37486621  0.42822759     1.26100
H494        H  0.44425033  0.41034622  0.40133248     0.38100
O495        O  0.40314709  0.47014554  0.19954838    -0.81800
O496        O  0.34426446  0.46868355  0.03150677    -0.66500
O497        O  0.38895636  0.45897672  0.11677075    -1.13100
C498        C  0.44461712  0.56457261  0.11135114     1.05100
O499        O  0.38612013  0.50100219  0.99999952    -0.79700
O500        O  0.44250696  0.52783717  0.03041313    -0.67300
Ni501      Ni  0.37201575  0.43900762  0.16674874     1.34900
C502        C  0.45141016  0.51120697  0.04593367     0.83800
O503        O  0.33959891  0.42017415  0.07179363    -0.80300
O504        O  0.34076636  0.40592844  0.13713146    -0.90500
C505        C  0.35834359  0.48170569  0.99877159     0.83400
O506        O  0.34705127  0.45541306  0.17665202    -0.68700
O507        O  0.43002010  0.56350753  0.07903172    -0.88000
C508        C  0.33121263  0.46081879  0.15225773     0.84200
C509        C  0.33163828  0.40016553  0.09984349     1.05800
H510        H  0.38012921  0.51180927  0.10157646     0.37600
O511        O  0.39059489  0.50445568  0.08537991    -1.10700
O512        O  0.44007148  0.49623300  0.07843972    -0.67300
Ni513      Ni  0.41686995  0.50018250  0.12125972     1.26300
O514        O  0.33545771  0.46291796  0.11348630    -0.67600
O515        O  0.44415784  0.54183160  0.12661747    -0.79900
C516        C  0.43078789  0.48150417  0.19173533     0.83600
O517        O  0.44108951  0.49356931  0.15754250    -0.67000
Ni518      Ni  0.40784341  0.53136656  0.04071040     1.27400
Ni519      Ni  0.36466729  0.46268629  0.07656634     1.26100
H520        H  0.39839151  0.44901046  0.10427881     0.38100
O521        O  0.19206402  0.27410223  0.53164912    -0.81800
O522        O  0.19689148  0.22105869  0.36383379    -0.66500
O523        O  0.20401517  0.27353306  0.44958656    -1.13100
C524        C  0.09764972  0.22533639  0.44305633     1.05100
O525        O  0.15977664  0.22305546  0.33198288    -0.79700
O526        O  0.13884144  0.25792338  0.35927345    -0.67300
Ni527      Ni  0.22425335  0.27681299  0.49958100     1.34900
C528        C  0.15346957  0.28306526  0.37682834     0.83800
O529        O  0.24434518  0.26557684  0.40499624    -0.80300
O530        O  0.25797036  0.28063463  0.47035782    -0.90500
C531        C  0.18269863  0.22004969  0.33115743     0.83400
O532        O  0.20933888  0.23564962  0.50890695    -0.68700
O533        O  0.09852741  0.21251647  0.41000342    -0.88000
C534        C  0.20304230  0.21427765  0.48466910     0.84200
C535        C  0.26426844  0.27763436  0.43336460     1.05800
H536        H  0.15161706  0.21109642  0.43364372     0.37600
O537        O  0.15867272  0.22906512  0.41763421    -1.10700
O538        O  0.16538598  0.28626620  0.41206334    -0.67300
Ni539      Ni  0.16259511  0.25921502  0.45450438     1.26300
O540        O  0.20101939  0.21651097  0.44575703    -0.67600
O541        O  0.12116109  0.24454200  0.46114656    -0.79900
C542        C  0.18189488  0.29132794  0.52477739     0.83600
O543        O  0.16909793  0.28977863  0.49122757    -0.67000
Ni544      Ni  0.13089853  0.21874427  0.37312341     1.27400
Ni545      Ni  0.20123824  0.24641243  0.40915848     1.26100
H546        H  0.21361114  0.29312028  0.43730559     0.38100
O547        O  0.25565614  0.39915079  0.63571426    -0.81800
O548        O  0.31646056  0.45361392  0.80356380    -0.66500
O549        O  0.27051685  0.40053496  0.71762224    -1.13100
C550        C  0.21396277  0.44949347  0.72660357     1.05100
O551        O  0.27529831  0.44590187  0.83553869    -0.79700
O552        O  0.21895505  0.41513125  0.80753307    -0.67300
Ni553      Ni  0.28729224  0.39911440  0.66665707     1.34900
C554        C  0.20957980  0.38970673  0.79142393     0.83800
O555        O  0.32046534  0.41013885  0.76091078    -0.80300
O556        O  0.31951923  0.39802681  0.69426590    -0.90500
C557        C  0.30290465  0.45395566  0.83606443     0.83400
O558        O  0.31101854  0.44080792  0.65787483    -0.68700
O559        O  0.22913582  0.46299883  0.75852485    -0.88000
C560        C  0.32676850  0.46169481  0.68263767     0.84200
C561        C  0.32932732  0.40035164  0.73103484     1.05800
H562        H  0.27970568  0.46198809  0.73462239     0.37600
O563        O  0.26930951  0.44398060  0.75071657    -1.10700
O564        O  0.21958703  0.38632838  0.75754560    -0.67300
Ni565      Ni  0.24254037  0.41379309  0.71453973     1.26300
O566        O  0.32398781  0.45836837  0.72160644    -0.67600
O567        O  0.21527767  0.42808429  0.71010988    -0.79900
C568        C  0.22842295  0.38152491  0.64404460     0.83600
O569        O  0.21786808  0.38303367  0.67810069    -0.67000
Ni570      Ni  0.25263508  0.45376337  0.79570326     1.27400
Ni571      Ni  0.29529057  0.42783895  0.75817857     1.26100
H572        H  0.26114675  0.38081961  0.72945525     0.38100
O573        O  0.26799434  0.20084256  0.97080447    -0.81800
O574        O  0.21626140  0.20668144  0.14004996    -0.66500
O575        O  0.26794556  0.21316392  0.05307217    -1.13100
C576        C  0.21714737  0.10718703  0.06127557     1.05100
O577        O  0.22024848  0.17084437  0.17160163    -0.79700
O578        O  0.25170532  0.14675597  0.14295891    -0.67300
Ni579      Ni  0.27041640  0.23291159  0.00298396     1.34900
C580        C  0.27718243  0.16296814  0.12688396     0.83800
O581        O  0.26064859  0.25368712  0.09842938    -0.80300
O582        O  0.27374647  0.26642425  0.03232563    -0.90500
C583        C  0.21572699  0.19269783  0.17266962     0.83400
O584        O  0.22895691  0.21750377  0.99434915    -0.68700
O585        O  0.20421142  0.10886171  0.09355339    -0.88000
C586        C  0.20882642  0.21345532  0.01976942     0.84200
C587        C  0.27113392  0.27305726  0.06935341     1.05800
H588        H  0.20551594  0.16164003  0.06990724     0.37600
O589        O  0.22356247  0.16849040  0.08580079    -1.10700
O590        O  0.28066918  0.17521209  0.09182195    -0.67300
Ni591      Ni  0.25333806  0.17168486  0.04882450     1.26300
O592        O  0.21161932  0.21132387  0.05844879    -0.67600
O593        O  0.23788022  0.12984958  0.04330306    -0.79900
C594        C  0.28522382  0.19066817  0.97779712     0.83600
O595        O  0.28366623  0.17780128  0.01140453    -0.67000
Ni596      Ni  0.21307241  0.14127178  0.13062366     1.27400
Ni597      Ni  0.24137013  0.21081840  0.09430365     1.26100
H598        H  0.28778000  0.22286083  0.06471919     0.38100
O599        O  0.38972860  0.26823245  0.86401417    -0.81800
O600        O  0.45060078  0.32379773  0.69559594    -0.66500
O601        O  0.39492656  0.28092255  0.78024147    -1.13100
C602        C  0.44156203  0.22183142  0.77671504     1.05100
O603        O  0.43906965  0.28119885  0.66517865    -0.79700
O604        O  0.40730992  0.22616830  0.69533016    -0.67300
Ni605      Ni  0.39143728  0.29898520  0.82864565     1.34900
C606        C  0.38217113  0.21844185  0.71128746     0.83800
O607        O  0.40656810  0.32977287  0.73240766    -0.80300
O608        O  0.39125789  0.33022733  0.79696594    -0.90500
C609        C  0.44935603  0.30907930  0.66359368     0.83400
O610        O  0.43294771  0.32321411  0.83982528    -0.68700
O611        O  0.45488528  0.23566033  0.74398013    -0.88000
C612        C  0.45481383  0.33819457  0.81599284     0.84200
C613        C  0.39516926  0.33897308  0.75951842     1.05800
H614        H  0.45666386  0.28833065  0.76617012     0.37600
O615        O  0.43845798  0.27784747  0.75037827    -1.10700
O616        O  0.37971642  0.22899201  0.74511444    -0.67300
Ni617      Ni  0.40775435  0.25280558  0.78704825     1.26300
O618        O  0.45320961  0.33375836  0.77714091    -0.67600
O619        O  0.42152735  0.22514434  0.79418515    -0.79900
C620        C  0.37403967  0.24044925  0.85687184     0.83600
O621        O  0.37673313  0.22964936  0.82374891    -0.67000
Ni622      Ni  0.44657448  0.25909453  0.70601125     1.27400
Ni623      Ni  0.42344733  0.30429826  0.73994809     1.26100
H624        H  0.37553083  0.27143964  0.76723946     0.38100
O625        O  0.52838148  0.94265450  0.20081956    -0.81800
O626        O  0.53392581  0.89088436  0.03047971    -0.66500
O627        O  0.54057561  0.94176372  0.11799691    -1.13100
C628        C  0.43453477  0.89238125  0.10957981     1.05100
O629        O  0.49788037  0.89475218  0.99879545    -0.79700
O630        O  0.47370859  0.92636780  0.02824825    -0.67300
Ni631      Ni  0.55951244  0.94296868  0.16832997     1.34900
C632        C  0.48948471  0.95172693  0.04491366     0.83800
O633        O  0.58123859  0.93511328  0.07242367    -0.80300
O634        O  0.59252281  0.94460714  0.13959738    -0.90500
C635        C  0.52051652  0.89130694  0.99776286     0.83400
O636        O  0.54171137  0.90125119  0.17612327    -0.68700
O637        O  0.43562859  0.87898477  0.07732180    -0.88000
C638        C  0.53783297  0.88111152  0.15090905     0.84200
C639        C  0.60018761  0.94531323  0.10220093     1.05800
H640        H  0.48859085  0.87981738  0.10055486     0.37600
O641        O  0.49562740  0.89783157  0.08465783    -1.10700
O642        O  0.50306311  0.95511443  0.07883426    -0.67300
Ni643      Ni  0.49926308  0.92776514  0.12152257     1.26300
O644        O  0.53815734  0.88496702  0.11197025    -0.67600
O645        O  0.45765232  0.91334863  0.12634861    -0.79900
C646        C  0.51728913  0.95905965  0.19329490     0.83600
O647        O  0.50571585  0.95808882  0.15875898    -0.67000
Ni648      Ni  0.46817702  0.88767432  0.03992992     1.27400
Ni649      Ni  0.53811453  0.91540790  0.07653242     1.26100
H650        H  0.55067506  0.96168899  0.10679548     0.38100
O651        O  0.58669468  0.06726053  0.30310231    -0.81800
O652        O  0.64680769  0.11879502  0.47213914    -0.66500
O653        O  0.60039863  0.06673866  0.38546612    -1.13100
C654        C  0.54548641  0.11705176  0.39735092     1.05100
O655        O  0.60569469  0.10956324  0.50514638    -0.79700
O656        O  0.54940253  0.08005874  0.47653417    -0.67300
Ni657      Ni  0.61675081  0.06465996  0.33455370     1.34900
C658        C  0.53959823  0.05517009  0.45870571     0.83800
O659        O  0.65083845  0.07621064  0.42832921    -0.80300
O660        O  0.64721990  0.06103499  0.36271954    -0.90500
C661        C  0.63327466  0.11742108  0.50544030     0.83400
O662        O  0.64265496  0.10618445  0.32657962    -0.68700
O663        O  0.55964635  0.12888286  0.43068662    -0.88000
C664        C  0.65802393  0.12723213  0.35142607     0.84200
C665        C  0.65844549  0.06507532  0.39872007     1.05800
H666        H  0.61033062  0.12842316  0.40501855     0.37600
O667        O  0.59973160  0.10999109  0.42017481    -1.10700
O668        O  0.54931922  0.05251988  0.42419417    -0.67300
Ni669      Ni  0.57313312  0.08084764  0.38261895     1.26300
O670        O  0.65408103  0.12422716  0.39017276    -0.67600
O671        O  0.54675985  0.09624638  0.37883694    -0.79900
C672        C  0.55915892  0.05028727  0.31024852     0.83600
O673        O  0.54847989  0.05109341  0.34460477    -0.67000
Ni674      Ni  0.58317823  0.11871775  0.46642177     1.27400
Ni675      Ni  0.62548217  0.09358903  0.42645590     1.26100
H676        H  0.59059441  0.04695475  0.39712864     0.38100
O677        O  0.79811607  0.08097231  0.97114294    -0.81800
O678        O  0.79472515  0.01929390  0.13644967    -0.66500
O679        O  0.78576656  0.06539943  0.05263696    -1.13100
C680        C  0.89192464  0.12350153  0.06296758     1.05100
O681        O  0.82570515  0.06106190  0.16914906    -0.79700
O682        O  0.85241605  0.11745560  0.14250522    -0.67300
Ni683      Ni  0.76620735  0.04934604  0.00203174     1.34900
C684        C  0.83542317  0.12604797  0.12741920     0.83800
O685        O  0.74660216  0.01503435  0.09529029    -0.80300
O686        O  0.73259754  0.01721645  0.02997149    -0.90500
C687        C  0.80770230  0.03309959  0.16947095     0.83400
O688        O  0.78273931  0.02482815  0.99121956    -0.68700
O689        O  0.89046042  0.10770300  0.09406729    -0.88000
C690        C  0.78894181  0.00921825  0.01462271     0.84200
C691        C  0.72683034  0.00708598  0.06676127     1.05800
H692        H  0.83923478  0.05752542  0.06845121     0.37600
O693        O  0.83124707  0.06730955  0.08485975    -1.10700
O694        O  0.82162682  0.11578165  0.09368209    -0.67300
Ni695      Ni  0.82712872  0.09406823  0.04998865     1.26300
O696        O  0.79077900  0.01254051  0.05370813    -0.67600
O697        O  0.86884163  0.12219303  0.04708210    -0.79900
C698        C  0.80865221  0.10833540  0.97954666     0.83600
O699        O  0.82072815  0.11860815  0.01389108    -0.67000
Ni700      Ni  0.85724480  0.08392744  0.13059915     1.27400
Ni701      Ni  0.78923247  0.04052486  0.09194842     1.26100
H702        H  0.77535398  0.07426001  0.06543608     0.38100
O703        O  0.73586052  0.14173304  0.86820233    -0.81800
O704        O  0.67706978  0.13447813  0.69925889    -0.66500
O705        O  0.72336028  0.12947276  0.78589053    -1.13100
C706        C  0.77806009  0.23565918  0.77599886     1.05100
O707        O  0.71739315  0.16924686  0.66658438    -0.79700
O708        O  0.77347439  0.19521200  0.69567481    -0.67300
Ni709      Ni  0.70652670  0.10896289  0.83581774     1.34900
C710        C  0.78370773  0.18047448  0.71348694     0.83800
O711        O  0.67565773  0.08818483  0.74054347    -0.80300
O712        O  0.67682689  0.07448447  0.80630001    -0.90500
C713        C  0.69034579  0.14807537  0.66645514     0.83400
O714        O  0.67925355  0.12266170  0.84441400    -0.68700
O715        O  0.76365616  0.23347940  0.74297981    -0.88000
C716        C  0.66368428  0.12792025  0.81942854     0.84200
C717        C  0.66793143  0.06843946  0.76894641     1.05800
H718        H  0.71153092  0.18030555  0.76750703     0.37600
O719        O  0.72289056  0.17349175  0.75230538    -1.10700
O720        O  0.77436318  0.16827945  0.74835480    -0.67300
Ni721      Ni  0.74969196  0.17124278  0.78990946     1.26300
O722        O  0.66826207  0.13010374  0.78065346    -0.67600
O723        O  0.77556963  0.21313244  0.79488178    -0.79900
C724        C  0.76356500  0.15339089  0.86110681     0.83600
O725        O  0.77442553  0.16649955  0.82763372    -0.67000
Ni726      Ni  0.73986313  0.20003855  0.70666278     1.27400
Ni727      Ni  0.69859362  0.13103124  0.74468763     1.26100
H728        H  0.73381955  0.12038252  0.77394035     0.38100
O729        O  0.72195100  0.93129831  0.53014288    -0.81800
O730        O  0.77589481  0.98928960  0.36121224    -0.66500
O731        O  0.72311560  0.94493834  0.44780596    -1.13100
C732        C  0.77187735  0.88804480  0.44047980     1.05100
O733        O  0.76733637  0.94759642  0.32977089    -0.79700
O734        O  0.73759779  0.89193805  0.36025813    -0.67300
Ni735      Ni  0.72101636  0.96194781  0.49798961     1.34900
C736        C  0.71208011  0.88346358  0.37550014     0.83800
O737        O  0.73297286  0.99436326  0.40312561    -0.80300
O738        O  0.71856122  0.99275577  0.46885979    -0.90500
C739        C  0.77453038  0.97491398  0.32874125     0.83400
O740        O  0.76280841  0.98715406  0.50669042    -0.68700
O741        O  0.78584827  0.90328829  0.40879601    -0.88000
C742        C  0.78383865  0.00286792  0.48193639     0.84200
C743        C  0.72227060  0.00290966  0.43222661     1.05800
H744        H  0.78468086  0.95396545  0.43125914     0.37600
O745        O  0.76658332  0.94333869  0.41528547    -1.10700
O746        O  0.70871324  0.89389215  0.40899248    -0.67300
Ni747      Ni  0.73643124  0.91709211  0.45177744     1.26300
O748        O  0.78098087  0.99862774  0.44313926    -0.67600
O749        O  0.75058823  0.88972897  0.45682275    -0.79900
C750        C  0.70462393  0.90385459  0.52257524     0.83600
O751        O  0.70589861  0.89300991  0.48864576    -0.67000
Ni752      Ni  0.77610576  0.92602760  0.37072971     1.27400
Ni753      Ni  0.75043273  0.96915549  0.40699599     1.26100
H754        H  0.70337724  0.93538726  0.43584287     0.38100
O755        O  0.59885313  0.86659942  0.63653045    -0.81800
O756        O  0.55242403  0.87730324  0.80693698    -0.66500
O757        O  0.60100385  0.88053160  0.71828493    -1.13100
C758        C  0.54809985  0.77456946  0.72958033     1.05100
O759        O  0.55533949  0.84093575  0.83919727    -0.79700
O760        O  0.58491185  0.81475198  0.80957239    -0.67300
Ni761      Ni  0.60253613  0.89951332  0.66790640     1.34900
C762        C  0.60999602  0.82995926  0.79199807     0.83800
O763        O  0.59723172  0.92291967  0.76361304    -0.80300
O764        O  0.60728297  0.93401064  0.69638845    -0.90500
C765        C  0.55220559  0.86372438  0.83974644     0.83400
O766        O  0.56092807  0.88383540  0.66135207    -0.68700
O767        O  0.53593005  0.77685001  0.76235205    -0.88000
C768        C  0.54126588  0.88054369  0.68710457     0.84200
C769        C  0.60811141  0.94175498  0.73385372     1.05800
H770        H  0.53820442  0.83055175  0.73819401     0.37600
O771        O  0.55653691  0.83712721  0.75328638    -1.10700
O772        O  0.61287717  0.84196372  0.75693771    -0.67300
Ni773      Ni  0.58505669  0.83881552  0.71527191     1.26300
O774        O  0.54560390  0.88076507  0.72581767    -0.67600
O775        O  0.56862960  0.79701509  0.71109424    -0.79900
C776        C  0.61566349  0.85591037  0.64331598     0.83600
O777        O  0.61420278  0.84325866  0.67701416    -0.67000
Ni778      Ni  0.54646298  0.81031150  0.79877916     1.27400
Ni779      Ni  0.57592651  0.87981146  0.76043761     1.26100
H780        H  0.62111903  0.88995249  0.72898658     0.38100
O781        O  0.16390392  0.94711110  0.83263727    -0.81800
O782        O  0.17021947  0.89070836  0.98758714    -0.66500
O783        O  0.16013605  0.94263126  0.91732196    -1.13100
C784        C  0.26382656  0.00169361  0.93538474     1.05100
O785        O  0.19227816  0.92797099  0.03091156    -0.79700
O786        O  0.20302594  0.98173318  0.00828487    -0.67300
Ni787      Ni  0.13298815  0.92557364  0.87264452     1.34900
C788        C  0.20142692  0.00005226  0.98427830     0.83800
O789        O  0.12205007  0.88786446  0.95607378    -0.80300
O790        O  0.10034920  0.90341646  0.91082927    -0.90500
C791        C  0.18220619  0.90082775  0.02196545     0.83400
O792        O  0.13627103  0.89090676  0.86139838    -0.68700
O793        O  0.25596289  0.99343568  0.97259809    -0.88000
C794        C  0.15426864  0.88319551  0.87535180     0.84200
C795        C  0.09923667  0.88811734  0.94237444     1.05800
H796        H  0.21567159  0.93429540  0.93775739     0.37600
O797        O  0.20519528  0.94352148  0.94929221    -1.10700
O798        O  0.20303073  0.99821742  0.94532083    -0.67300
Ni799      Ni  0.20238494  0.96811365  0.90886595     1.26300
O800        O  0.16880768  0.89407304  0.90832464    -0.67600
O801        O  0.24537391  0.99228145  0.90497711    -0.79900
C802        C  0.18287475  0.97485360  0.83144646     0.83600
O803        O  0.19720252  0.98885121  0.86365583    -0.67000
Ni804      Ni  0.22321316  0.96036719  0.00009693     1.27400
Ni805      Ni  0.16384883  0.91559616  0.95225334     1.26100
H806        H  0.15300782  0.95315294  0.93381475     0.38100
O807        O  0.27552781  0.84060447  0.33352770    -0.81800
O808        O  0.21700946  0.84590877  0.17664184    -0.66500
O809        O  0.26924185  0.83755524  0.24873793    -1.13100
C810        C  0.32613605  0.94235466  0.23057857     1.05100
O811        O  0.25517012  0.86834756  0.13515445    -0.79700
O812        O  0.31161065  0.88665006  0.15644013    -0.67300
Ni813      Ni  0.25301294  0.81026804  0.29322855     1.34900
C814        C  0.32720402  0.88089257  0.18055890     0.83800
O815        O  0.21545436  0.79877568  0.20782941    -0.80300
O816        O  0.22970321  0.77757653  0.25565535    -0.90500
C817        C  0.22774934  0.85803744  0.14261882     0.83400
O818        O  0.21890153  0.81412915  0.30573068    -0.68700
O819        O  0.31583720  0.93534497  0.19400273    -0.88000
C820        C  0.20871292  0.82961415  0.29003019     0.84200
C821        C  0.21465605  0.77609241  0.22360544     1.05800
H822        H  0.25936800  0.89159910  0.22888173     0.37600
O823        O  0.26921549  0.88197657  0.21662067    -1.10700
O824        O  0.32359332  0.87942925  0.21953001    -0.67300
Ni825      Ni  0.29452088  0.87993704  0.25659328     1.26300
O826        O  0.21846504  0.84346379  0.25620057    -0.67600
O827        O  0.31890610  0.92308893  0.25972809    -0.79900
C828        C  0.30282716  0.86129191  0.33416057     0.83600
O829        O  0.31607311  0.87568787  0.30167172    -0.67000
Ni830      Ni  0.28527793  0.90123108  0.16593809     1.27400
Ni831      Ni  0.24201542  0.84044443  0.21295096     1.26100
H832        H  0.27995290  0.83058793  0.23233969     0.38100
O833        O  0.38534820  0.89308751  0.49807031    -0.81800
O834        O  0.44102507  0.95686145  0.65745204    -0.66500
O835        O  0.39037461  0.89591836  0.58369330    -1.13100
C836        C  0.33113881  0.94046227  0.60250150     1.05100
O837        O  0.40262396  0.93873600  0.69911796    -0.79700
O838        O  0.34816436  0.89650692  0.67422417    -0.67300
Ni839      Ni  0.40737516  0.88551493  0.53964040     1.34900
C840        C  0.33194853  0.87672503  0.64832979     0.83800
O841        O  0.44470313  0.91232103  0.62499636    -0.80300
O842        O  0.43044211  0.87645034  0.57799133    -0.90500
C843        C  0.42987651  0.95714010  0.69171875     0.83400
O844        O  0.44125461  0.92398306  0.52836915    -0.68700
O845        O  0.33868653  0.93987796  0.63992737    -0.88000
C846        C  0.45017971  0.94955524  0.54366893     0.84200
C847        C  0.44600242  0.89069028  0.60928925     1.05800
H848        H  0.39842429  0.95917857  0.60669177     0.37600
O849        O  0.38889063  0.93909420  0.61729566    -1.10700
O850        O  0.33470680  0.88156924  0.60964948    -0.67300
Ni851      Ni  0.36506129  0.91286244  0.57538635     1.26300
O852        O  0.43970653  0.95332164  0.57694699    -0.67600
O853        O  0.34087334  0.93169316  0.57237190    -0.79900
C854        C  0.35838106  0.88731418  0.49668336     0.83600
O855        O  0.34483812  0.88841398  0.52871195    -0.67000
Ni856      Ni  0.37089986  0.93860563  0.66795566     1.27400
Ni857      Ni  0.41696568  0.92608215  0.62034829     1.26100
H858        H  0.37955239  0.87799371  0.59983990     0.38100
O859        O  0.49430384  0.11213446  0.00482021    -0.81800
O860        O  0.48102160  0.04775800  0.84518037    -0.66500
O861        O  0.49572996  0.10968044  0.91893038    -1.13100
C862        C  0.39108708  0.06622605  0.90685787     1.05100
O863        O  0.45865334  0.06446398  0.80472213    -0.79700
O864        O  0.44549448  0.10587803  0.82954233    -0.67300
Ni865      Ni  0.52347314  0.11904418  0.96268846     1.34900
C866        C  0.45232903  0.12734768  0.85395264     0.83800
O867        O  0.53100217  0.09152923  0.87639061    -0.80300
O868        O  0.55486242  0.12711459  0.92348301    -0.90500
C869        C  0.46931342  0.04753253  0.81098514     0.83400
O870        O  0.51768490  0.08020925  0.97345511    -0.68700
O871        O  0.39600155  0.06281362  0.86935508    -0.88000
C872        C  0.50054502  0.05474839  0.95793014     0.84200
C873        C  0.55481817  0.11281984  0.89145870     1.05800
H874        H  0.43841918  0.04713793  0.90061861     0.37600
O875        O  0.44883282  0.06664864  0.88813668    -1.10700
O876        O  0.45526131  0.12515439  0.89254006    -0.67300
Ni877      Ni  0.45406660  0.09476901  0.92874381     1.26300
O878        O  0.48555056  0.05124711  0.92532535    -0.67600
O879        O  0.41154562  0.07795248  0.93455631    -0.79900
C880        C  0.47480441  0.12017046  0.00604463     0.83600
O881        O  0.46130621  0.12126015  0.97381513    -0.67000
Ni882      Ni  0.42833138  0.06436556  0.83877352     1.27400
Ni883      Ni  0.48969423  0.07873658  0.88255833     1.26100
H884        H  0.50339866  0.12759405  0.90263239     0.38100
O885        O  0.21934722  0.06124250  0.67295845    -0.81800
O886        O  0.28454843  0.11739502  0.51416445    -0.66500
O887        O  0.22344666  0.06667286  0.58735529    -1.13100
C888        C  0.27192856  0.00969328  0.57580378     1.05100
O889        O  0.26941485  0.07807459  0.47521153    -0.79700
O890        O  0.23129757  0.02194349  0.49789587    -0.67300
Ni891      Ni  0.21239399  0.08359328  0.63103973     1.34900
C892        C  0.20982874  0.00677845  0.52215084     0.83800
O893        O  0.23847242  0.11941957  0.54374406    -0.80300
O894        O  0.20374465  0.10683594  0.59225597    -0.90500
C895        C  0.28677742  0.10556323  0.48168266     0.83400
O896        O  0.25079789  0.11726170  0.64383907    -0.68700
O897        O  0.27632345  0.01963490  0.53890803    -0.88000
C898        C  0.27643503  0.12651989  0.62841500     0.84200
C899        C  0.21692931  0.12089995  0.55945345     1.05800
H900        H  0.28777744  0.07652058  0.56998176     0.37600
O901        O  0.26831517  0.06627384  0.55722378    -1.10700
O902        O  0.21133827  0.01201709  0.56061517    -0.67300
Ni903      Ni  0.24065809  0.04177986  0.59728610     1.26300
O904        O  0.28023905  0.11735892  0.59406293    -0.67600
O905        O  0.25939569  0.01751896  0.60327311    -0.79900
C906        C  0.21364988  0.03434908  0.67353811     0.83600
O907        O  0.21414083  0.02078335  0.64133246    -0.67000
Ni908      Ni  0.27238823  0.04912453  0.50821215     1.27400
Ni909      Ni  0.25372877  0.09314104  0.55096886     1.26100
H910        H  0.20562026  0.05553428  0.57099949     0.38100
O911        O  0.44150261  0.17205434  0.16589723    -0.81800
O912        O  0.37846371  0.16258530  0.32812198    -0.66500
O913        O  0.43850724  0.17516220  0.25131616    -1.13100
C914        C  0.39078132  0.06913780  0.26197484     1.05100
O915        O  0.39370789  0.13751475  0.36452077    -0.79700
O916        O  0.42886219  0.11729683  0.34062289    -0.67300
Ni917      Ni  0.44665765  0.20163956  0.20614986     1.34900
C918        C  0.45250077  0.12871192  0.31964813     0.83800
O919        O  0.42330362  0.21151860  0.29678829    -0.80300
O920        O  0.45304548  0.23384216  0.24273105    -0.90500
C921        C  0.37678317  0.14825694  0.36030008     0.83400
O922        O  0.40691386  0.19299175  0.19415594    -0.68700
O923        O  0.38337633  0.07282475  0.29785690    -0.88000
C924        C  0.38223646  0.17801303  0.21274312     0.84200
C925        C  0.44133904  0.23474018  0.27686123     1.05800
H926        H  0.37568689  0.11962946  0.26794570     0.37600
O927        O  0.39472287  0.12875831  0.28185130    -1.10700
O928        O  0.45310631  0.13524670  0.28153033    -0.67300
Ni929      Ni  0.42344807  0.13328069  0.24251505     1.26300
O930        O  0.38020228  0.16719206  0.24845718    -0.67600
O931        O  0.40647137  0.09051892  0.23680624    -0.79900
C932        C  0.45068736  0.15348386  0.16570330     0.83600
O933        O  0.45080809  0.13994800  0.19851437    -0.67000
Ni934      Ni  0.38874399  0.10579964  0.32991907     1.27400
Ni935      Ni  0.40853926  0.17004223  0.28928029     1.26100
H936        H  0.45695680  0.18324793  0.26659725     0.38100
C937        C  0.31114897  0.12247837  0.45346857    -0.07100
C938        C  0.30459577  0.12817537  0.41394916    -0.18200
C939        C  0.32601642  0.13800955  0.38299766     0.10100
C940        C  0.35471006  0.14260706  0.39221420    -0.07000
C941        C  0.36141684  0.13811489  0.43248864    -0.18200
C942        C  0.33995278  0.12807692  0.46314622     0.10200
S943        S  0.31416574  0.14096962  0.33188911    -0.33200
S944        S  0.34950902  0.11937472  0.51260838    -0.33200
H945        H  0.33643816  0.13268689  0.53537465     0.28200
H946        H  0.32440241  0.12326472  0.31376170     0.28200
H947        H  0.28214569  0.12311907  0.40656914     0.18800
H948        H  0.38321919  0.14130787  0.43981970     0.18800
C949        C  0.46742424  0.12767070  0.04657143    -0.07100
C950        C  0.47147647  0.15610227  0.05226075    -0.18200
C951        C  0.46798858  0.16565223  0.09101950     0.10100
C952        C  0.45878452  0.14588901  0.12522126    -0.07000
C953        C  0.45482362  0.11734646  0.11931846    -0.18200
C954        C  0.45897796  0.10807850  0.08059939     0.10200
S955        S  0.47739768  0.20397348  0.09477751    -0.33200
S956        S  0.45209394  0.07057295  0.07626907    -0.33200
H957        H  0.44192082  0.06615434  0.03531649     0.28200
H958        H  0.49174464  0.20870433  0.13313531     0.28200
H959        H  0.47871644  0.17151285  0.02659567     0.18800
H960        H  0.44751986  0.10173421  0.14471936     0.18800
C961        C  0.28256632  0.98816381  0.58520097    -0.07100
C962        C  0.28693047  0.97341085  0.55183105    -0.18200
C963        C  0.30057047  0.95610382  0.55646214     0.10100
C964        C  0.31138730  0.95369164  0.59545900    -0.07000
C965        C  0.30537721  0.96699680  0.62926673    -0.18200
C966        C  0.29103070  0.98367384  0.62475362     0.10200
S967        S  0.30338112  0.93794784  0.51106645    -0.33200
S968        S  0.28627978  0.00028234  0.67043271    -0.33200
H969        H  0.25523078  0.98679206  0.66515135     0.28200
H970        H  0.29341653  0.91051700  0.53105252     0.28200
H971        H  0.27982262  0.97552678  0.52126293     0.18800
H972        H  0.31270210  0.96527422  0.65985179     0.18800
C973        C  0.44733385  0.98055128  0.72141311    -0.07100
C974        C  0.45861441  0.00997658  0.70839728    -0.18200
C975        C  0.46821684  0.03302032  0.73683024     0.10100
C976        C  0.46650550  0.02636798  0.77921715    -0.07000
C977        C  0.45788835  0.99729630  0.79185034    -0.18200
C978        C  0.44831042  0.97430859  0.76331026     0.10200
S979        S  0.48104696  0.06990602  0.71687650    -0.33200
S980        S  0.43660517  0.93739567  0.78210312    -0.33200
H981        H  0.44249210  0.92699450  0.74547595     0.28200
H982        H  0.49958363  0.08528800  0.75025898     0.28200
H983        H  0.45807736  0.01477436  0.67603092     0.18800
H984        H  0.45682000  0.99204077  0.82429097     0.18800
C985        C  0.31809985  0.86912514  0.37506073    -0.07100
C986        C  0.30009813  0.85994408  0.41057443    -0.18200
C987        C  0.31223478  0.86492742  0.45023309     0.10100
C988        C  0.34352020  0.88067249  0.45553413    -0.07000
C989        C  0.36159081  0.89036197  0.42007598    -0.18200
C990        C  0.34941435  0.88448336  0.38029087     0.10200
S991        S  0.28629094  0.84914979  0.49225282    -0.33200
S992        S  0.37524619  0.89633482  0.33798783    -0.33200
H993        H  0.35994304  0.86889277  0.31734564     0.28200
H994        H  0.30190977  0.83690764  0.51173474     0.28200
H995        H  0.27603814  0.84809295  0.40762025     0.18800
H996        H  0.38564193  0.90240545  0.42320395     0.18800
C997        C  0.34632246  0.97504230  0.23792435    -0.07100
C998        C  0.34598284  0.99494216  0.20842579    -0.18200
C999        C  0.36163884  0.02574705  0.21417017     0.10100
C1000       C  0.37895504  0.03774111  0.24988041    -0.07000
C1001       C  0.38079815  0.01829655  0.27842151    -0.18200
C1002       C  0.36496069  0.98721199  0.27280411     0.10200
S1003       S  0.35642383  0.04823073  0.17646180    -0.33200
S1004       S  0.36907968  0.96383173  0.31029489    -0.33200
H1005       H  0.39111289  0.98681142  0.33450460     0.28200
H1006       H  0.35192266  0.06561748  0.20537303     0.28200
H1007       H  0.33211966  0.98652098  0.18120567     0.18800
H1008       H  0.39410151  0.02759413  0.30593524     0.18800
C1009       C  0.18997503  0.99023953  0.79085182    -0.07100
C1010       C  0.21736647  0.01677808  0.78591810    -0.18200
C1011       C  0.22612231  0.03109247  0.74773556     0.10100
C1012       C  0.20701728  0.01889331  0.71340033    -0.07000
C1013       C  0.17986516  0.99239615  0.71789877    -0.18200
C1014       C  0.17082905  0.97828425  0.75609287     0.10200
S1015       S  0.26233120  0.06431716  0.74457257    -0.33200
S1016       S  0.13384818  0.94615785  0.75816954    -0.33200
H1017       H  0.12608608  0.95522503  0.79450140     0.28200
H1018       H  0.26788321  0.06042977  0.70343280     0.28200
H1019       H  0.23241326  0.02620444  0.81178254     0.18800
H1020       H  0.16493719  0.98329865  0.69174063     0.18800
C1021       C  0.29651161  0.02183310  0.92900541    -0.07100
C1022       C  0.31589895  0.01965531  0.95751185    -0.18200
C1023       C  0.34678481  0.03514014  0.95232966     0.10100
C1024       C  0.35935238  0.05388838  0.91795471    -0.07000
C1025       C  0.34026985  0.05719308  0.89022305    -0.18200
C1026       C  0.30919812  0.04190160  0.89577809     0.10200
S1027       S  0.36854285  0.02779292  0.98882717    -0.33200
S1028       S  0.28734398  0.04973444  0.86029397    -0.33200
H1029       H  0.26679004  0.04781886  0.88994424     0.28200
H1030       H  0.38498162  0.02286829  0.95877029     0.28200
H1031       H  0.30691150  0.00447861  0.98332827     0.18800
H1032       H  0.34966908  0.07168891  0.86378270     0.18800
C1033       C  0.18592594  0.88188032  0.05137956    -0.07100
C1034       C  0.17961514  0.88367706  0.09266540    -0.18200
C1035       C  0.19111365  0.87375159  0.12352035     0.10100
C1036       C  0.20932778  0.86192064  0.11247591    -0.07000
C1037       C  0.21342937  0.85779475  0.07110685    -0.18200
C1038       C  0.20157072  0.86733911  0.04039220     0.10200
S1039       S  0.18448744  0.87993700  0.17600768    -0.33200
S1040       S  0.20999923  0.86350759  0.98803673    -0.33200
H1041       H  0.17954198  0.84629833  0.97835081     0.28200
H1042       H  0.21457708  0.89352828  0.18805214     0.28200
H1043       H  0.16757216  0.89488146  0.10098667     0.18800
H1044       H  0.22715263  0.84840305  0.06271595     0.18800
C1045       C  0.51301389  0.87764221  0.66999632    -0.07100
C1046       C  0.50697730  0.87134516  0.62764595    -0.18200
C1047       C  0.48409686  0.87330464  0.60746241     0.10100
C1048       C  0.46676967  0.88249422  0.62944915    -0.07000
C1049       C  0.47154030  0.88706580  0.67215215    -0.18200
C1050       C  0.49385136  0.88429174  0.69264728     0.10200
S1051       S  0.48002270  0.86639433  0.55298390    -0.33200
S1052       S  0.49756121  0.89141226  0.74712782    -0.33200
H1053       H  0.49544802  0.86402973  0.75672397     0.28200
H1054       H  0.45025264  0.84320057  0.55648038     0.28200
H1055       H  0.52080660  0.86562642  0.60950083     0.18800
H1056       H  0.45805081  0.89350441  0.68981421     0.18800
C1057       C  0.68208605  0.88519667  0.55253410    -0.07100
C1058       C  0.69042278  0.88789823  0.59393480    -0.18200
C1059       C  0.66888344  0.87596439  0.62457176     0.10100
C1060       C  0.63846030  0.86089719  0.61335650    -0.07000
C1061       C  0.63023066  0.85561798  0.57189425    -0.18200
C1062       C  0.65174992  0.86772517  0.54121964     0.10200
S1063       S  0.68154400  0.88386080  0.67715602    -0.33200
S1064       S  0.63876594  0.86288951  0.48871185    -0.33200
H1065       H  0.65623688  0.89315948  0.47826346     0.28200
H1066       H  0.66391500  0.89645911  0.68680145     0.28200
H1067       H  0.71373588  0.90105081  0.60251621     0.18800
H1068       H  0.60684083  0.84393153  0.56339563     0.18800
C1069       C  0.63778309  0.12939430  0.83629604    -0.07100
C1070       C  0.61181462  0.11817491  0.81237268    -0.18200
C1071       C  0.58499653  0.11400574  0.82881442     0.10100
C1072       C  0.58356827  0.12040820  0.87096024    -0.07000
C1073       C  0.61003143  0.13329647  0.89416032    -0.18200
C1074       C  0.63702108  0.13836859  0.87719312     0.10200
S1075       S  0.55322039  0.10123307  0.79483691    -0.33200
S1076       S  0.66983181  0.15711562  0.90911984    -0.33200
H1077       H  0.68924054  0.17269502  0.87645046     0.28200
H1078       H  0.56683667  0.09910961  0.75874055     0.28200
H1079       H  0.61229074  0.11170421  0.78091041     0.18800
H1080       H  0.60970491  0.13919153  0.92599789     0.18800
C1081       C  0.64930772  0.03646359  0.75808297    -0.07100
C1082       C  0.65735274  0.02632636  0.72341563    -0.18200
C1083       C  0.64494245  0.99594166  0.71549041     0.10100
C1084       C  0.62274848  0.97443363  0.74210793    -0.07000
C1085       C  0.61413904  0.98470276  0.77638166    -0.18200
C1086       C  0.62687170  0.01529918  0.78434185     0.10200
S1087       S  0.66051810  0.98668130  0.67240458    -0.33200
S1088       S  0.61272463  0.02598932  0.82755634    -0.33200
H1089       H  0.61745248  0.05276774  0.80997574     0.28200
H1090       H  0.66370498  0.96500353  0.69410236     0.28200
H1091       H  0.67493875  0.04224095  0.70357059     0.18800
H1092       H  0.59696564  0.96884145  0.79672939     0.18800
C1093       C  0.78142696  0.98990254  0.28823112    -0.07100
C1094       C  0.80835389  0.01665961  0.28394571    -0.18200
C1095       C  0.81826088  0.03006449  0.24546949     0.10100
C1096       C  0.80004666  0.01747024  0.21000022    -0.07000
C1097       C  0.77292804  0.99056605  0.21444335    -0.18200
C1098       C  0.76349942  0.97667699  0.25293265     0.10200
S1099       S  0.85531152  0.06213815  0.24401835    -0.33200
S1100       S  0.72791462  0.94264183  0.25506108    -0.33200
H1101       H  0.72061144  0.94707328  0.29499525     0.28200
H1102       H  0.86353686  0.05303978  0.20811978     0.28200
H1103       H  0.82262647  0.02642536  0.31058452     0.18800
H1104       H  0.75854940  0.98058606  0.18798247     0.18800
C1105       C  0.80534029  0.12743610  0.94964239    -0.07100
C1106       C  0.80805410  0.12265858  0.90795948    -0.18200
C1107       C  0.79649019  0.13307917  0.87791241     0.10100
C1108       C  0.78233689  0.14890566  0.88995715    -0.07000
C1109       C  0.78282514  0.15677977  0.93109655    -0.18200
C1110       C  0.79433967  0.14627630  0.96125637     0.10200
S1111       S  0.79708261  0.12224647  0.82544433    -0.33200
S1112       S  0.79111492  0.15485546  0.01398179    -0.33200
H1113       H  0.77527992  0.12490099  0.02652553     0.28200
H1114       H  0.76636756  0.11052128  0.81908446     0.28200
H1115       H  0.81697241  0.10864890  0.89897415     0.18800
H1116       H  0.77237182  0.16941773  0.94002535     0.18800
C1117       C  0.64865251  0.12403546  0.54643338    -0.07100
C1118       C  0.63241607  0.12398404  0.58122462    -0.18200
C1119       C  0.64509041  0.13120096  0.62051370     0.10100
C1120       C  0.67493885  0.13860218  0.62615334    -0.07000
C1121       C  0.69109734  0.13785576  0.59200463    -0.18200
C1122       C  0.67834751  0.13033226  0.55243034     0.10200
S1123       S  0.62229697  0.13199718  0.66162167    -0.33200
S1124       S  0.70038031  0.12851509  0.51082062    -0.33200
H1125       H  0.72506584  0.13309732  0.53449824     0.28200
H1126       H  0.64511007  0.15817451  0.67972884     0.28200
H1127       H  0.60958666  0.11895809  0.57793896     0.18800
H1128       H  0.71390866  0.14312412  0.59651917     0.18800
C1129       C  0.52615963  0.12725408  0.37855232    -0.07100
C1130       C  0.50485225  0.12893349  0.40270405    -0.18200
C1131       C  0.48223847  0.13251061  0.38455716     0.10100
C1132       C  0.47988209  0.13273145  0.34085107    -0.07000
C1133       C  0.50301306  0.13395822  0.31722323    -0.18200
C1134       C  0.52636570  0.13197990  0.33566789     0.10200
S1135       S  0.45707068  0.13710462  0.41801583    -0.33200
S1136       S  0.55596086  0.13570035  0.30288653    -0.33200
H1137       H  0.57830384  0.14798667  0.33332347     0.28200
H1138       H  0.47232302  0.13994849  0.45510582     0.28200
H1139       H  0.50522054  0.12620979  0.43569314     0.18800
H1140       H  0.50252264  0.13555168  0.28403340     0.18800
C1141       C  0.47343490  0.97620649  0.52157867    -0.07100
C1142       C  0.47095292  0.00185515  0.52046200    -0.18200
C1143       C  0.49147935  0.02738139  0.49895841     0.10100
C1144       C  0.51594058  0.02801025  0.47911161    -0.07000
C1145       C  0.51827547  0.00228986  0.47965334    -0.18200
C1146       C  0.49753419  0.97658458  0.50073144     0.10200
S1147       S  0.48419419  0.05774506  0.49594753    -0.33200
S1148       S  0.50401354  0.94565949  0.50130782    -0.33200
H1149       H  0.49582610  0.93812169  0.54270015     0.28200
H1150       H  0.49444865  0.06584573  0.45533724     0.28200
H1151       H  0.45226651  0.00170734  0.53538324     0.18800
H1152       H  0.53695228  0.00250938  0.46457420     0.18800
C1153       C  0.68030081  0.05478231  0.40602295    -0.07100
C1154       C  0.68862156  0.05276085  0.44645666    -0.18200
C1155       C  0.70514096  0.03888645  0.45538684     0.10100
C1156       C  0.71191320  0.02448763  0.42358222    -0.07000
C1157       C  0.70580927  0.02868078  0.38291166    -0.18200
C1158       C  0.69134329  0.04455808  0.37368828     0.10200
S1159       S  0.71723037  0.04111200  0.50801780    -0.33200
S1160       S  0.68854239  0.05122952  0.31980857    -0.33200
H1161       H  0.69607400  0.08100616  0.32579527     0.28200
H1162       H  0.74530343  0.04514058  0.49751877     0.28200
H1163       H  0.68197995  0.06176468  0.47157072     0.18800
H1164       H  0.71197744  0.01918131  0.35789125     0.18800
C1165       C  0.54792049  0.87433425  0.88020288    -0.07100
C1166       C  0.53143220  0.88888592  0.88176755    -0.18200
C1167       C  0.52386067  0.89640734  0.91931158     0.10100
C1168       C  0.53145200  0.88780073  0.95692360    -0.07000
C1169       C  0.54963702  0.87501038  0.95524239    -0.18200
C1170       C  0.55863700  0.86905737  0.91763756     0.10200
S1171       S  0.50556767  0.91799066  0.91645007    -0.33200
S1172       S  0.58478568  0.85591235  0.91985936    -0.33200
H1173       H  0.60102094  0.87200001  0.88506581     0.28200
H1174       H  0.52278142  0.93752385  0.94821277     0.28200
H1175       H  0.52411080  0.89429602  0.85345837     0.18800
H1176       H  0.55697451  0.86952550  0.98346309     0.18800
C1177       C  0.35196747  0.87786295  0.16244925    -0.07100
C1178       C  0.37598912  0.88301013  0.18790645    -0.18200
C1179       C  0.40229312  0.88584073  0.17167361     0.10100
C1180       C  0.40532588  0.88428515  0.12858648    -0.07000
C1181       C  0.38066011  0.87709906  0.10335759    -0.18200
C1182       C  0.35396805  0.87324606  0.11973697     0.10200
S1183       S  0.43154008  0.89076543  0.20665748    -0.33200
S1184       S  0.32337026  0.86201297  0.08424440    -0.33200
H1185       H  0.30160106  0.84243836  0.11216434     0.28200
H1186       H  0.41711543  0.89010682  0.24348690     0.28200
H1187       H  0.37459404  0.88585188  0.22061999     0.18800
H1188       H  0.38235174  0.87506498  0.07045942     0.18800
C1189       C  0.51988623  0.98081903  0.22378590    -0.07100
C1190       C  0.53104998  0.01017710  0.21017967    -0.18200
C1191       C  0.54175298  0.03360778  0.23812867     0.10100
C1192       C  0.54066972  0.02740750  0.28043632    -0.07000
C1193       C  0.52640696  0.99785421  0.29413696    -0.18200
C1194       C  0.51632117  0.97444422  0.26626818     0.10200
S1195       S  0.55815367  0.07092592  0.21809049    -0.33200
S1196       S  0.50117355  0.93745712  0.28714539    -0.33200
H1197       H  0.48475005  0.92234375  0.25218688     0.28200
H1198       H  0.55260112  0.08301563  0.25323945     0.28200
H1199       H  0.53372681  0.01520846  0.17758471     0.18800
H1200       H  0.52545003  0.99308783  0.32676291     0.18800
C1201       C  0.63294359  0.95936383  0.09434521    -0.07100
C1202       C  0.64323566  0.95173725  0.05908860    -0.18200
C1203       C  0.67396224  0.96554880  0.05025604     0.10100
C1204       C  0.69496555  0.98731018  0.07740090    -0.07000
C1205       C  0.68483861  0.99393449  0.11326603    -0.18200
C1206       C  0.65441306  0.98101607  0.12172536     0.10200
S1207       S  0.68621510  0.95476447  0.00493863    -0.33200
S1208       S  0.64409486  0.99514208  0.16579251    -0.33200
H1209       H  0.67292705  0.01544344  0.18011257     0.28200
H1210       H  0.65773449  0.93363672  0.99037753     0.28200
H1211       H  0.62717425  0.93510146  0.03833805     0.18800
H1212       H  0.70097333  0.01102279  0.13345413     0.18800
C1213       C  0.49793433  0.02821963  0.97930227    -0.07100
C1214       C  0.49916125  0.02834506  0.02247030    -0.18200
C1215       C  0.49635056  0.00388297  0.04473584     0.10100
C1216       C  0.49233182  0.97839952  0.02341486    -0.07000
C1217       C  0.49093746  0.97827010  0.98022481    -0.18200
C1218       C  0.49422150  0.00287181  0.95806163     0.10200
S1219       S  0.49579570  0.00501769  0.10026823    -0.33200
S1220       S  0.49517392  0.00095783  0.90279460    -0.33200
H1221       H  0.51827284  0.03059893  0.89780788     0.28200
H1222       H  0.50486105  0.03532658  0.10413441     0.28200
H1223       H  0.50160267  0.04750972  0.03889752     0.18800
H1224       H  0.48811441  0.95910297  0.96338482     0.18800
C1225       C  0.44907133  0.20048127  0.79570102    -0.07100
C1226       C  0.45080202  0.19964899  0.83877942    -0.18200
C1227       C  0.45365819  0.17735999  0.85899299     0.10100
C1228       C  0.45522415  0.15516926  0.83570900    -0.07000
C1229       C  0.45596975  0.15772188  0.79242419    -0.18200
C1230       C  0.45238328  0.17954377  0.77236320     0.10200
S1231       S  0.45344596  0.17790181  0.91434258    -0.33200
S1232       S  0.44946054  0.17760410  0.71705569    -0.33200
H1233       H  0.42449141  0.18135909  0.71538170     0.28200
H1234       H  0.42687754  0.15025099  0.91704042     0.28200
H1235       H  0.44875562  0.21592051  0.85701388     0.18800
H1236       H  0.45759144  0.14145553  0.77363172     0.18800
C1237       C  0.30313312  0.14918170  0.65117705    -0.07100
C1238       C  0.30218625  0.17268092  0.67086966    -0.18200
C1239       C  0.32760431  0.19590758  0.68982598     0.10100
C1240       C  0.35469956  0.19550589  0.69013635    -0.07000
C1241       C  0.35541970  0.17179559  0.67090136    -0.18200
C1242       C  0.33005130  0.14857560  0.65221369     0.10200
S1243       S  0.32436326  0.22619836  0.71065159    -0.33200
S1244       S  0.33319468  0.11797158  0.63246388    -0.33200
H1245       H  0.30442754  0.09587357  0.64458075     0.28200
H1246       H  0.35257077  0.24851383  0.69696434     0.28200
H1247       H  0.28179386  0.17357454  0.67013266     0.18800
H1248       H  0.37574757  0.17078832  0.67160325     0.18800
C1249       C  0.20825163  0.07770066  0.04338284    -0.07100
C1250       C  0.20111406  0.07282004  0.00129732    -0.18200
C1251       C  0.19614760  0.04669158  0.98159676     0.10100
C1252       C  0.20007950  0.02541578  0.00378369    -0.07000
C1253       C  0.20620100  0.03013474  0.04636494    -0.18200
C1254       C  0.20982288  0.05553420  0.06624060     0.10200
S1255       S  0.18460901  0.04197256  0.92851827    -0.33200
S1256       S  0.21942217  0.05985766  0.12004249    -0.33200
H1257       H  0.19496145  0.06282474  0.13137691     0.28200
H1258       H  0.16319868  0.01162453  0.93300552     0.28200
H1259       H  0.19939503  0.08956945  0.98359083     0.18800
H1260       H  0.20926211  0.01439614  0.06452707     0.18800
C1261       C  0.30858181  0.19646455  0.94825409    -0.07100
C1262       C  0.30071504  0.18928194  0.90694951    -0.18200
C1263       C  0.32241996  0.20065180  0.87639327     0.10100
C1264       C  0.35234857  0.22084670  0.88742938    -0.07000
C1265       C  0.36044873  0.22601370  0.92898108    -0.18200
C1266       C  0.33882510  0.21373829  0.95970307     0.10200
S1267       S  0.31001689  0.19156262  0.82383517    -0.33200
S1268       S  0.34968582  0.22344654  0.01286006    -0.33200
H1269       H  0.38065536  0.23962563  0.00631651     0.28200
H1270       H  0.32956783  0.18102599  0.81504775     0.28200
H1271       H  0.27743041  0.17585827  0.89835806     0.18800
H1272       H  0.38350029  0.24117961  0.93713800     0.18800
C1273       C  0.30389841  0.16749787  0.15007422    -0.07100
C1274       C  0.30298380  0.14304984  0.17000890    -0.18200
C1275       C  0.32799396  0.14579519  0.19103653     0.10100
C1276       C  0.35476399  0.17361967  0.19194673    -0.07000
C1277       C  0.35550580  0.19809692  0.17247413    -0.18200
C1278       C  0.33032733  0.19553423  0.15259663     0.10200
S1279       S  0.32588269  0.11328762  0.21453905    -0.33200
S1280       S  0.33282304  0.22925501  0.13348830    -0.33200
H1281       H  0.30343909  0.22118155  0.14404461     0.28200
H1282       H  0.29637507  0.09285506  0.20288000     0.28200
H1283       H  0.28272588  0.12159584  0.16837679     0.18800
H1284       H  0.37565602  0.21968542  0.17385561     0.18800
C1285       C  0.38434782  0.35992474  0.74854648    -0.07100
C1286       C  0.38192244  0.37703519  0.78029435    -0.18200
C1287       C  0.36611651  0.39218878  0.77514878     0.10100
C1288       C  0.35101548  0.38955255  0.73768330    -0.07000
C1289       C  0.35542769  0.37426546  0.70503317    -0.18200
C1290       C  0.37212949  0.36009969  0.70974758     0.10200
S1291       S  0.36627404  0.41431981  0.81769773    -0.33200
S1292       S  0.37539455  0.34128305  0.66554047    -0.33200
H1293       H  0.40664841  0.35785514  0.66716780     0.28200
H1294       H  0.37172092  0.43874173  0.79284799     0.28200
H1295       H  0.39200387  0.37818630  0.80998297     0.18800
H1296       H  0.34511930  0.37248278  0.67535555     0.18800
C1297       C  0.19300673  0.21537134  0.29037559    -0.07100
C1298       C  0.20908618  0.20036422  0.28891050    -0.18200
C1299       C  0.21800942  0.19401869  0.25146496     0.10100
C1300       C  0.20984478  0.20179670  0.21357602    -0.07000
C1301       C  0.19470420  0.21774360  0.21508865    -0.18200
C1302       C  0.18683890  0.22512360  0.25262910     0.10200
S1303       S  0.24059831  0.17677571  0.25489341    -0.33200
S1304       S  0.17013535  0.24817326  0.24976135    -0.33200
H1305       H  0.18696097  0.26666640  0.28260944     0.28200
H1306       H  0.26110534  0.19531868  0.22491604     0.28200
H1307       H  0.21481529  0.19342260  0.31728253     0.18800
H1308       H  0.18889140  0.22461643  0.18672060     0.18800
C1309       C  0.20010492  0.18643940  0.50275731    -0.07100
C1310       C  0.20754588  0.16891470  0.47842170    -0.18200
C1311       C  0.21093928  0.14602357  0.49555312     0.10100
C1312       C  0.20778511  0.14070518  0.53863092    -0.07000
C1313       C  0.19808429  0.15661670  0.56243577    -0.18200
C1314       C  0.19371889  0.17887425  0.54503447     0.10200
S1315       S  0.21933945  0.12450365  0.46041987    -0.33200
S1316       S  0.17991882  0.19662616  0.57875321    -0.33200
H1317       H  0.16210699  0.19952392  0.54846173     0.28200
H1318       H  0.20268305  0.09749021  0.48178767     0.28200
H1319       H  0.21181043  0.17368704  0.44589535     0.18800
H1320       H  0.19470007  0.15233662  0.59517013     0.18800
C1321       C  0.21000126  0.35802700  0.61522486    -0.07100
C1322       C  0.20907073  0.36568622  0.57421675    -0.18200
C1323       C  0.19761919  0.34389819  0.54380437     0.10100
C1324       C  0.18668196  0.31388396  0.55507302    -0.07000
C1325       C  0.18494408  0.30608846  0.59656836    -0.18200
C1326       C  0.19686716  0.32785475  0.62678269     0.10200
S1327       S  0.20059952  0.35627820  0.49124712    -0.33200
S1328       S  0.19779034  0.31572190  0.67849746    -0.33200
H1329       H  0.22753854  0.33760290  0.68627577     0.28200
H1330       H  0.21487492  0.34107294  0.47733647     0.28200
H1331       H  0.21909111  0.38890172  0.56554719     0.18800
H1332       H  0.17635319  0.28304447  0.60519885     0.18800
C1333       C  0.34339144  0.47391598  0.95747231    -0.07100
C1334       C  0.36108735  0.48713073  0.92218296    -0.18200
C1335       C  0.34892107  0.48138513  0.88238737     0.10100
C1336       C  0.31808489  0.46162294  0.87686826    -0.07000
C1337       C  0.30036792  0.44868135  0.91195424    -0.18200
C1338       C  0.31245501  0.45426519  0.95163133     0.10200
S1339       S  0.37389390  0.50088443  0.84045395    -0.33200
S1340       S  0.28671602  0.43527879  0.99281076    -0.33200
H1341       H  0.30142947  0.42012295  0.00540507     0.28200
H1342       H  0.35409189  0.50764955  0.82009150     0.28200
H1343       H  0.38480032  0.50245823  0.92536692     0.18800
H1344       H  0.27664390  0.43340060  0.90852311     0.18800
C1345       C  0.28201910  0.30533165  0.07733547    -0.07100
C1346       C  0.29628572  0.32557361  0.04467430    -0.18200
C1347       C  0.31144844  0.35636469  0.05038975     0.10100
C1348       C  0.31188943  0.36810794  0.08961183    -0.07000
C1349       C  0.29565396  0.34806704  0.12158057    -0.18200
C1350       C  0.28071384  0.31710859  0.11597311     0.10200
S1351       S  0.33215359  0.37896448  0.00707631    -0.33200
S1352       S  0.26109651  0.29434950  0.15970455    -0.33200
H1353       H  0.23496254  0.27591884  0.13725499     0.28200
H1354       H  0.35938593  0.39332075  0.02868900     0.28200
H1355       H  0.29731715  0.31754966  0.01439781     0.18800
H1356       H  0.29514210  0.35657196  0.15175411     0.18800
C1357       C  0.46302757  0.34906738  0.54415171    -0.07100
C1358       C  0.46609287  0.32407476  0.54927588    -0.18200
C1359       C  0.46340286  0.31144033  0.58817757     0.10100
C1360       C  0.45656755  0.32358446  0.62273013    -0.07000
C1361       C  0.45350129  0.34860040  0.61712217    -0.18200
C1362       C  0.45600277  0.36100873  0.57828593     0.10200
S1363       S  0.47099886  0.28128767  0.59160023    -0.33200
S1364       S  0.44907228  0.39156098  0.57403107    -0.33200
H1365       H  0.43798620  0.38519119  0.53353202     0.28200
H1366       H  0.48663755  0.29085811  0.62907323     0.28200
H1367       H  0.47225790  0.31537705  0.52323619     0.18800
H1368       H  0.44826786  0.35812907  0.64299332     0.18800
C1369       C  0.45456138  0.31570728  0.33424998    -0.07100
C1370       C  0.45419484  0.31325703  0.29097829    -0.18200
C1371       C  0.45059370  0.28767542  0.27134732     0.10100
C1372       C  0.44834994  0.26384291  0.29503459    -0.07000
C1373       C  0.45032441  0.26681411  0.33809437    -0.18200
C1374       C  0.45347640  0.29217458  0.35786318     0.10200
S1375       S  0.44604244  0.28580871  0.21626908    -0.33200
S1376       S  0.45400404  0.29176999  0.41326027    -0.33200
H1377       H  0.48129998  0.31873429  0.41590522     0.28200
H1378       H  0.42170636  0.25652200  0.21612600     0.28200
H1379       H  0.45506371  0.33079206  0.27194594     0.18800
H1380       H  0.44876355  0.24879902  0.35677257     0.18800
C1381       C  0.45047843  0.47979986  0.22246872    -0.07100
C1382       C  0.44506375  0.48260575  0.26383393    -0.18200
C1383       C  0.45611519  0.47226420  0.29472467     0.10100
C1384       C  0.47253511  0.45849193  0.28376002    -0.07000
C1385       C  0.48057231  0.45848268  0.24282688    -0.18200
C1386       C  0.47046352  0.46990667  0.21203635     0.10200
S1387       S  0.44574823  0.47438630  0.34691898    -0.33200
S1388       S  0.48127060  0.46824828  0.15998547    -0.33200
H1389       H  0.49133979  0.49845653  0.15212777     0.28200
H1390       H  0.43613753  0.44453604  0.35637489     0.28200
H1391       H  0.43035880  0.49090336  0.27194778     0.18800
H1392       H  0.49381100  0.44850766  0.23469251     0.18800
C1393       C  0.29685674  0.29027531  0.42452646    -0.07100
C1394       C  0.31702850  0.30104238  0.45807525    -0.18200
C1395       C  0.34801204  0.31704040  0.45271982     0.10100
C1396       C  0.36001002  0.32354361  0.41257688    -0.07000
C1397       C  0.33997225  0.31149774  0.37910084    -0.18200
C1398       C  0.30897762  0.29465477  0.38451822     0.10200
S1399       S  0.37057378  0.32972419  0.49860604    -0.33200
S1400       S  0.28652843  0.28006359  0.33882453    -0.33200
H1401       H  0.27087733  0.25078505  0.35419002     0.28200
H1402       H  0.38592357  0.31464373  0.48917582     0.28200
H1403       H  0.30871472  0.29751677  0.48928946     0.18800
H1404       H  0.34846699  0.31531294  0.34796216     0.18800
C1405       C  0.52728436  0.41716574  0.87151169    -0.07100
C1406       C  0.51230925  0.39066242  0.89431899    -0.18200
C1407       C  0.49061535  0.36389120  0.87610602     0.10100
C1408       C  0.48241706  0.36346281  0.83430238    -0.07000
C1409       C  0.49869055  0.38948231  0.81095158    -0.18200
C1410       C  0.52125978  0.41588728  0.82863706     0.10200
S1411       S  0.47471557  0.33092911  0.90773269    -0.33200
S1412       S  0.54178818  0.44690951  0.79424729    -0.33200
H1413       H  0.56946631  0.45681963  0.81373239     0.28200
H1414       H  0.47106060  0.31151998  0.87528689     0.28200
H1415       H  0.51717458  0.39082397  0.92678224     0.18800
H1416       H  0.49327979  0.38957420  0.77874596     0.18800
C1417       C  0.52014822  0.50186731  0.98390967    -0.07100
C1418       C  0.52202539  0.52974247  0.98596371    -0.18200
C1419       C  0.50063590  0.53361008  0.00697994     0.10100
C1420       C  0.47582200  0.50889249  0.02540111    -0.07000
C1421       C  0.47411168  0.48107865  0.02382441    -0.18200
C1422       C  0.49560270  0.47722393  0.00306461     0.10200
S1423       S  0.50736535  0.57101879  0.01140796    -0.33200
S1424       S  0.48932242  0.43989892  0.00017681    -0.33200
H1425       H  0.49893098  0.44234750  0.95921418     0.28200
H1426       H  0.49704753  0.56768988  0.05213186     0.28200
H1427       H  0.54087475  0.54895404  0.97213242     0.18800
H1428       H  0.45528899  0.46188537  0.03774650     0.18800
C1429       C  0.40455969  0.53620083  0.63008639    -0.07100
C1430       C  0.37855271  0.52095364  0.60623430    -0.18200
C1431       C  0.35174801  0.49864786  0.62352490     0.10100
C1432       C  0.35106688  0.49023426  0.66528462    -0.07000
C1433       C  0.37619330  0.50757775  0.68987844    -0.18200
C1434       C  0.40260655  0.53069429  0.67311027     0.10200
S1435       S  0.31924590  0.48212444  0.59076071    -0.33200
S1436       S  0.43346203  0.55301265  0.70748553    -0.33200
H1437       H  0.41967519  0.53838316  0.74431268     0.28200
H1438       H  0.29915333  0.47792676  0.62253451     0.28200
H1439       H  0.37925460  0.52580907  0.57369727     0.18800
H1440       H  0.37563715  0.50214722  0.72213751     0.18800
C1441       C  0.53485730  0.69432053  0.67113274    -0.07100
C1442       C  0.53014074  0.69448562  0.71386101    -0.18200
C1443       C  0.53185635  0.71925781  0.73367015     0.10100
C1444       C  0.53892708  0.74505841  0.71068641    -0.07000
C1445       C  0.54169781  0.74413905  0.66772954    -0.18200
C1446       C  0.53959931  0.71935743  0.64781586     0.10200
S1447       S  0.52785371  0.71759649  0.78869370    -0.33200
S1448       S  0.54616567  0.72269277  0.59319077    -0.33200
H1449       H  0.51828966  0.69758773  0.58417862     0.28200
H1450       H  0.50486244  0.72439054  0.78768656     0.28200
H1451       H  0.52609996  0.67550023  0.73244450     0.18800
H1452       H  0.54676088  0.76354700  0.64938627     0.18800
C1453       C  0.49207851  0.52633465  0.52580370    -0.07100
C1454       C  0.50126919  0.53076315  0.48459496    -0.18200
C1455       C  0.50536425  0.50972962  0.46331682     0.10100
C1456       C  0.49962365  0.48316722  0.48327795    -0.07000
C1457       C  0.48999906  0.47855151  0.52438780    -0.18200
C1458       C  0.48580822  0.49964505  0.54565729     0.10200
S1459       S  0.51919972  0.51878731  0.41139424    -0.33200
S1460       S  0.47058240  0.49148973  0.59704641    -0.33200
H1461       H  0.46504559  0.46212959  0.59894931     0.28200
H1462       H  0.53766883  0.50631617  0.41427440     0.28200
H1463       H  0.50604863  0.55117978  0.46915141     0.18800
H1464       H  0.48518785  0.45806182  0.53953881     0.18800
C1465       C  0.52262751  0.55501585  0.72527025    -0.07100
C1466       C  0.51842198  0.55876246  0.76680657    -0.18200
C1467       C  0.53099862  0.54976846  0.79738912     0.10100
C1468       C  0.54775809  0.53643259  0.78595709    -0.07000
C1469       C  0.54992030  0.53052689  0.74461258    -0.18200
C1470       C  0.53757245  0.53975541  0.71402609     0.10200
S1471       S  0.52743211  0.55869548  0.84987874    -0.33200
S1472       S  0.54442802  0.53420887  0.66139933    -0.33200
H1473       H  0.55558289  0.56402719  0.64984749     0.28200
H1474       H  0.55765882  0.57028008  0.85998923     0.28200
H1475       H  0.50697978  0.57052868  0.77534084     0.18800
H1476       H  0.56271015  0.52015594  0.73601743     0.18800
C1477       C  0.52707627  0.65804286  0.45869555    -0.07100
C1478       C  0.50698471  0.64327583  0.42601416    -0.18200
C1479       C  0.51192855  0.65516103  0.38625135     0.10100
C1480       C  0.53749353  0.68290962  0.37823521    -0.07000
C1481       C  0.55772227  0.69779759  0.41047302    -0.18200
C1482       C  0.55321770  0.68555262  0.45028618     0.10200
S1483       S  0.48432038  0.63397692  0.34755133    -0.33200
S1484       S  0.58190231  0.70465362  0.48872724    -0.33200
H1485       H  0.60144072  0.72918881  0.46443245     0.28200
H1486       H  0.48670075  0.65864300  0.32633647     0.28200
H1487       H  0.48684271  0.62216300  0.43136464     0.18800
H1488       H  0.57756125  0.71891405  0.40401926     0.18800
C1489       C  0.50990573  0.64624229  0.16754997    -0.07100
C1490       C  0.49171049  0.62148432  0.19220740    -0.18200
C1491       C  0.46843419  0.59545306  0.17512456     0.10100
C1492       C  0.46385363  0.59344148  0.13197123    -0.07000
C1493       C  0.48003681  0.61908701  0.10797114    -0.18200
C1494       C  0.50240979  0.64561501  0.12544765     0.10200
S1495       S  0.44549667  0.56567612  0.21018123    -0.33200
S1496       S  0.52027709  0.67784558  0.09246379    -0.33200
H1497       H  0.52535627  0.69846326  0.12384561     0.28200
H1498       H  0.41922762  0.55473229  0.18668344     0.28200
H1499       H  0.49630103  0.62190245  0.22482108     0.18800
H1500       H  0.47591716  0.61825656  0.07517134     0.18800
C1501       C  0.53510108  0.85300987  0.16795050    -0.07100
C1502       C  0.54342533  0.83635556  0.14317680    -0.18200
C1503       C  0.54640016  0.81293967  0.15936876     0.10100
C1504       C  0.54220178  0.80628563  0.20209124    -0.07000
C1505       C  0.53204240  0.82162470  0.22631134    -0.18200
C1506       C  0.52783394  0.84422074  0.20974463     0.10200
S1507       S  0.55516444  0.79225288  0.12334691    -0.33200
S1508       S  0.51275157  0.86053999  0.24385060    -0.33200
H1509       H  0.49480872  0.86315190  0.21347870     0.28200
H1510       H  0.53726516  0.76455943  0.14257348     0.28200
H1511       H  0.54840659  0.84201777  0.11096682     0.18800
H1512       H  0.52785613  0.81640798  0.25874549     0.18800
C1513       C  0.68539431  0.85992136  0.35359527    -0.07100
C1514       C  0.68755153  0.83707654  0.33392325    -0.18200
C1515       C  0.66302863  0.81360007  0.31396746     0.10100
C1516       C  0.63543441  0.81285822  0.31274032    -0.07000
C1517       C  0.63321050  0.83560918  0.33262017    -0.18200
C1518       C  0.65780644  0.85922147  0.35230528     0.10200
S1519       S  0.66816745  0.78461936  0.29253477    -0.33200
S1520       S  0.65290390  0.88863853  0.37265690    -0.33200
H1521       H  0.68105250  0.91174444  0.36007284     0.28200
H1522       H  0.64003071  0.76124649  0.30464358     0.28200
H1523       H  0.70838949  0.83704794  0.33502480     0.18800
H1524       H  0.61236169  0.83561723  0.33151325     0.18800
C1525       C  0.79177918  0.98460562  0.99550663    -0.07100
C1526       C  0.78785873  0.96086510  0.02056410    -0.18200
C1527       C  0.78505918  0.93484500  0.00374495     0.10100
C1528       C  0.78471428  0.93140569  0.96055988    -0.07000
C1529       C  0.79101168  0.95582238  0.93552173    -0.18200
C1530       C  0.79516013  0.98254613  0.95238150     0.10200
S1531       S  0.78264727  0.90706275  0.03923163    -0.33200
S1532       S  0.80498345  0.01355459  0.91805038    -0.33200
H1533       H  0.80915329  0.00078061  0.88248925     0.28200
H1534       H  0.79702108  0.89650365  0.01355266     0.28200
H1535       H  0.78625368  0.96217776  0.05361727     0.18800
H1536       H  0.79160562  0.95355177  0.90251219     0.18800
C1537       C  0.71107908  0.70488356  0.93269828    -0.07100
C1538       C  0.72062727  0.69391676  0.90035583    -0.18200
C1539       C  0.70769980  0.66311646  0.89358525     0.10100
C1540       C  0.68482153  0.64244332  0.91994865    -0.07000
C1541       C  0.67622911  0.65340256  0.95314750    -0.18200
C1542       C  0.68820563  0.68398522  0.95905160     0.10200
S1543       S  0.72122881  0.65160529  0.85052315    -0.33200
S1544       S  0.67059494  0.69437688  0.99816336    -0.33200
H1545       H  0.66929960  0.71610922  0.97379597     0.28200
H1546       H  0.71391647  0.62368622  0.86684985     0.28200
H1547       H  0.73817132  0.70938996  0.88010676     0.18800
H1548       H  0.65801326  0.63797001  0.97258374     0.18800
C1549       C  0.68552390  0.81235748  0.05564311    -0.07100
C1550       C  0.65606635  0.79591549  0.04130017    -0.18200
C1551       C  0.63234172  0.78182435  0.06872254     0.10100
C1552       C  0.63831372  0.78503612  0.11137100    -0.07000
C1553       C  0.66755983  0.80330921  0.12550840    -0.18200
C1554       C  0.69124696  0.81665478  0.09816203     0.10200
S1555       S  0.59552895  0.75914894  0.04717972    -0.33200
S1556       S  0.72826788  0.83752831  0.11948015    -0.33200
H1557       H  0.73987898  0.85739687  0.08632387     0.28200
H1558       H  0.57980120  0.76062236  0.08114829     0.28200
H1559       H  0.65167486  0.79229579  0.00857148     0.18800
H1560       H  0.67226708  0.80566230  0.15824037     0.18800
C1561       C  0.63710206  0.83389726  0.81333309    -0.07100
C1562       C  0.63631096  0.80929723  0.83262238    -0.18200
C1563       C  0.66167824  0.81172515  0.85197331     0.10100
C1564       C  0.68834163  0.83966389  0.85373503    -0.07000
C1565       C  0.68921727  0.86404933  0.83375879    -0.18200
C1566       C  0.66403694  0.86157487  0.81405629     0.10200
S1567       S  0.65914582  0.77803910  0.87138549    -0.33200
S1568       S  0.66733858  0.89507874  0.79261969    -0.33200
H1569       H  0.63898866  0.88897895  0.80559074     0.28200
H1570       H  0.68840153  0.78586412  0.86044196     0.28200
H1571       H  0.61604446  0.78778365  0.83145444     0.18800
H1572       H  0.70944894  0.88559195  0.83476700     0.18800
C1573       C  0.79975520  0.79710055  0.71345145    -0.07100
C1574       C  0.81788011  0.80058864  0.74789829    -0.18200
C1575       C  0.81142953  0.80681207  0.78702339     0.10100
C1576       C  0.78582699  0.80906336  0.79281094    -0.07000
C1577       C  0.76725386  0.80504212  0.75900824    -0.18200
C1578       C  0.77362409  0.79882959  0.71955690     0.10200
S1579       S  0.83781535  0.81355107  0.82766246    -0.33200
S1580       S  0.74771604  0.79286844  0.67831498    -0.33200
H1581       H  0.72466038  0.79126628  0.70272227     0.28200
H1582       H  0.83626867  0.83742805  0.84510811     0.28200
H1583       H  0.83792803  0.79931799  0.74436143     0.18800
H1584       H  0.74758915  0.80682749  0.76368214     0.18800
C1585       C  0.78717528  0.82235209  0.50090859    -0.07100
C1586       C  0.79176561  0.82728908  0.45815984    -0.18200
C1587       C  0.78769818  0.84881653  0.43763785     0.10100
C1588       C  0.77993524  0.86706696  0.46016918    -0.07000
C1589       C  0.77690921  0.86326829  0.50310944    -0.18200
C1590       C  0.77974449  0.84099900  0.52342959     0.10200
S1591       S  0.79007593  0.84993414  0.38235027    -0.33200
S1592       S  0.77061210  0.83596268  0.57733799    -0.33200
H1593       H  0.74940271  0.80552885  0.57314935     0.28200
H1594       H  0.76372928  0.85091071  0.37640481     0.28200
H1595       H  0.79711367  0.81319033  0.44003126     0.18800
H1596       H  0.77076873  0.87690182  0.52096139     0.18800
C1597       C  0.69474086  0.72462180  0.57983939    -0.07100
C1598       C  0.68461481  0.72057734  0.62054229    -0.18200
C1599       C  0.65402762  0.70544482  0.62972177     0.10100
C1600       C  0.63248458  0.69191207  0.59765594    -0.07000
C1601       C  0.64257382  0.69836864  0.55697829    -0.18200
C1602       C  0.67302986  0.71539607  0.54778622     0.10200
S1603       S  0.64440390  0.70490103  0.68307676    -0.33200
S1604       S  0.68220071  0.72474114  0.49429329    -0.33200
H1605       H  0.70610757  0.75355192  0.50243052     0.28200
H1606       H  0.61993448  0.70872665  0.67464676     0.28200
H1607       H  0.70057639  0.72867100  0.64560210     0.18800
H1608       H  0.62667653  0.68970956  0.53186946     0.18800
C1609       C  0.67807531  0.54914638  0.12707585    -0.07100
C1610       C  0.69453461  0.54853848  0.09289000    -0.18200
C1611       C  0.68211698  0.54097538  0.05334974     0.10100
C1612       C  0.65242973  0.53405183  0.04700507    -0.07000
C1613       C  0.63595562  0.53459489  0.08079610    -0.18200
C1614       C  0.64837337  0.54240062  0.12022247     0.10200
S1615       S  0.70488216  0.53915823  0.01300550    -0.33200
S1616       S  0.62525966  0.54450752  0.15949951    -0.33200
H1617       H  0.64681169  0.57386338  0.16964899     0.28200
H1618       H  0.68147250  0.51415265  0.99348565     0.28200
H1619       H  0.71727952  0.55343427  0.09687659     0.18800
H1620       H  0.61323032  0.52967027  0.07624363     0.18800
C1621       C  0.58905236  0.47713489  0.38225267    -0.07100
C1622       C  0.59247342  0.47656790  0.33945961    -0.18200
C1623       C  0.61760678  0.49883329  0.31908844     0.10100
C1624       C  0.64076785  0.52233813  0.34195513    -0.07000
C1625       C  0.63811461  0.52144899  0.38530489    -0.18200
C1626       C  0.61248609  0.49968890  0.40541711     0.10200
S1627       S  0.61734210  0.49663510  0.26383183    -0.33200
S1628       S  0.60999355  0.50362540  0.46008508    -0.33200
H1629       H  0.58051608  0.49801066  0.45898998     0.28200
H1630       H  0.61759638  0.52361889  0.25863358     0.28200
H1631       H  0.57460292  0.45927260  0.32133614     0.18800
H1632       H  0.65541339  0.53890661  0.40387365     0.18800
C1633       C  0.80264227  0.69424075  0.45344930    -0.07100
C1634       C  0.81063147  0.70221117  0.41247906    -0.18200
C1635       C  0.80111400  0.68055845  0.38210758     0.10100
C1636       C  0.78225467  0.65039795  0.39299046    -0.07000
C1637       C  0.77599561  0.64234076  0.43445559    -0.18200
C1638       C  0.78613172  0.66404309  0.46503611     0.10200
S1639       S  0.81069075  0.69319459  0.32977980    -0.33200
S1640       S  0.77506399  0.65313992  0.51786327    -0.33200
H1641       H  0.75628772  0.62253859  0.51054581     0.28200
H1642       H  0.82370119  0.67561257  0.32237983     0.28200
H1643       H  0.82341027  0.72550445  0.40394741     0.18800
H1644       H  0.76169806  0.61914656  0.44250083     0.18800
C1645       C  0.64095071  0.61766969  0.26387674    -0.07100
C1646       C  0.63316347  0.62025889  0.22342189    -0.18200
C1647       C  0.61578120  0.63328110  0.21477181     0.10100
C1648       C  0.60845401  0.64714781  0.24672393    -0.07000
C1649       C  0.61340880  0.64174118  0.28739717    -0.18200
C1650       C  0.62801379  0.62583806  0.29623522     0.10200
S1651       S  0.60292027  0.63042531  0.16242990    -0.33200
S1652       S  0.62820574  0.61580491  0.34935461    -0.33200
H1653       H  0.62516756  0.58797628  0.34018929     0.28200
H1654       H  0.57541115  0.62762716  0.17337641     0.28200
H1655       H  0.64091144  0.61247946  0.19817521     0.18800
H1656       H  0.60618754  0.65017909  0.31254672     0.18800
C1657       C  0.85002532  0.54879780  0.33631455    -0.07100
C1658       C  0.84922148  0.55095367  0.29299298    -0.18200
C1659       C  0.82777647  0.55537093  0.27280077     0.10100
C1660       C  0.80563529  0.55690662  0.29587129    -0.07000
C1661       C  0.80573711  0.55386590  0.33875351    -0.18200
C1662       C  0.82720910  0.54964068  0.35898346     0.10200
S1663       S  0.83157626  0.56147790  0.21803917    -0.33200
S1664       S  0.82473316  0.54713055  0.41391382    -0.33200
H1665       H  0.82346333  0.51948073  0.41484174     0.28200
H1666       H  0.82417452  0.58396336  0.21817041     0.28200
H1667       H  0.86632970  0.55061145  0.27448585     0.18800
H1668       H  0.78895202  0.55511516  0.35691682     0.18800
C1669       C  0.19422124  0.74686161  0.20404336    -0.07100
C1670       C  0.17847308  0.72160131  0.22893425    -0.18200
C1671       C  0.15535346  0.69481532  0.21285126     0.10100
C1672       C  0.14711742  0.69314032  0.17084289    -0.07000
C1673       C  0.16466618  0.71762170  0.14531370    -0.18200
C1674       C  0.18811019  0.74426970  0.16118367     0.10200
S1675       S  0.13740096  0.66374844  0.24772794    -0.33200
S1676       S  0.20980691  0.77468806  0.12605108    -0.33200
H1677       H  0.19590605  0.75969851  0.08941152     0.28200
H1678       H  0.13251840  0.64220956  0.21790710     0.28200
H1679       H  0.18344607  0.72299790  0.26152349     0.18800
H1680       H  0.15903903  0.71643077  0.11301692     0.18800
C1681       C  0.97450407  0.53082749  0.28639386    -0.07100
C1682       C  0.96538964  0.52406340  0.24541391    -0.18200
C1683       C  0.98626462  0.53491653  0.21386721     0.10100
C1684       C  0.01680731  0.55263131  0.22391978    -0.07000
C1685       C  0.02596846  0.55674358  0.26507125    -0.18200
C1686       C  0.00509382  0.54612947  0.29655501     0.10200
S1687       S  0.97222386  0.52804781  0.16182445    -0.33200
S1688       S  0.01889753  0.55565899  0.34855251    -0.33200
H1689       H  0.99934849  0.56564385  0.35998343     0.28200
H1690       H  0.98997087  0.55769157  0.14870401     0.28200
H1691       H  0.94182845  0.51206959  0.23787205     0.18800
H1692       H  0.04945309  0.57007326  0.27267703     0.18800
C1693       C  0.81504833  0.79923929  0.00184134    -0.07100
C1694       C  0.82443930  0.80935419  0.04234873    -0.18200
C1695       C  0.84515681  0.80415237  0.06315475     0.10100
C1696       C  0.85851708  0.78993893  0.04258775    -0.07000
C1697       C  0.85000951  0.78097301  0.00150690    -0.18200
C1698       C  0.82815241  0.78466940  0.98150553     0.10200
S1699       S  0.85113373  0.81352375  0.11694759    -0.33200
S1700       S  0.81598063  0.76739830  0.93178998    -0.33200
H1701       H  0.78594384  0.75036664  0.94372763     0.28200
H1702       H  0.84809206  0.78610722  0.12889740     0.28200
H1703       H  0.81421013  0.81989186  0.05897383     0.18800
H1704       H  0.85957413  0.76970923  0.98510585     0.18800
C1705       C  0.07048962  0.86898138  0.96423766    -0.07100
C1706       C  0.04359462  0.85490909  0.94205049    -0.18200
C1707       C  0.01707023  0.83237316  0.96009163     0.10100
C1708       C  0.01753798  0.82312897  0.00113917    -0.07000
C1709       C  0.04369331  0.83943400  0.02432829    -0.18200
C1710       C  0.06977176  0.86235141  0.00676710     0.10200
S1711       S  0.98298363  0.81583600  0.93024222    -0.33200
S1712       S  0.10140345  0.88198814  0.04069753    -0.33200
H1713       H  0.11236038  0.90971590  0.02114267     0.28200
H1714       H  0.99462974  0.83419116  0.89540170     0.28200
H1715       H  0.04366261  0.86060233  0.90999492     0.18800
H1716       H  0.04432539  0.83355019  0.05616437     0.18800
C1717       C  0.80901380  0.64930411  0.19366076    -0.07100
C1718       C  0.83389237  0.64874168  0.17811304    -0.18200
C1719       C  0.85733193  0.67370788  0.15915270     0.10100
C1720       C  0.85567263  0.69980928  0.15419068    -0.07000
C1721       C  0.83101990  0.70058340  0.17030811    -0.18200
C1722       C  0.80761084  0.67560663  0.18952232     0.10200
S1723       S  0.88937517  0.67130539  0.14383815    -0.33200
S1724       S  0.77576324  0.67807806  0.20559433    -0.33200
H1725       H  0.75452148  0.64879874  0.19424692     0.28200
H1726       H  0.91039083  0.70096022  0.15386081     0.28200
H1727       H  0.83548649  0.62890879  0.18169920     0.18800
H1728       H  0.82937518  0.72038881  0.16638395     0.18800
C1729       C  0.01592211  0.72120731  0.07491833    -0.07100
C1730       C  0.01802544  0.70360017  0.04355112    -0.18200
C1731       C  0.03374453  0.68844891  0.04889426     0.10100
C1732       C  0.04712637  0.68952245  0.08723559    -0.07000
C1733       C  0.04656646  0.70841434  0.11785254    -0.18200
C1734       C  0.03198807  0.72475650  0.11178725     0.10200
S1735       S  0.03369653  0.66624200  0.00652351    -0.36800
S1736       S  0.03534727  0.75002399  0.15197570    -0.33200
H1737       H  0.03896166  0.77267497  0.12472682     0.28200
H1738       H  0.06501835  0.68114609  0.00435430     0.28200
H1739       H  0.00657010  0.70074389  0.01454246     0.18800
H1740       H  0.05747678  0.71034624  0.14709954     0.18800
C1741       C  0.86066885  0.54765546  0.62857918    -0.07100
C1742       C  0.84326581  0.54588107  0.59408875    -0.18200
C1743       C  0.84824358  0.53797761  0.55518500     0.10100
C1744       C  0.87188731  0.53251743  0.54934478    -0.07000
C1745       C  0.88915168  0.53386052  0.58354254    -0.18200
C1746       C  0.88405505  0.54147386  0.62271266     0.10200
S1747       S  0.82200877  0.53297350  0.51541818    -0.33200
S1748       S  0.90876557  0.54332504  0.66295608    -0.33200
H1749       H  0.91725553  0.57270599  0.67335663     0.28200
H1750       H  0.82193821  0.50852031  0.49703766     0.28200
H1751       H  0.82484110  0.54987955  0.59738026     0.18800
H1752       H  0.90728764  0.52946532  0.57957830     0.18800
C1753       C  0.73953111  0.55087578  0.79891705    -0.07100
C1754       C  0.71412494  0.54286387  0.77481231    -0.18200
C1755       C  0.68773198  0.53892657  0.79249624     0.10100
C1756       C  0.68696487  0.54458135  0.83506799    -0.07000
C1757       C  0.71138858  0.54972386  0.85955896    -0.18200
C1758       C  0.73711861  0.55211013  0.84226718     0.10200
S1759       S  0.65580398  0.52626284  0.75911381    -0.33200
S1760       S  0.76594367  0.55656876  0.87760025    -0.33200
H1761       H  0.77550131  0.54049410  0.85364700     0.28200
H1762       H  0.63484485  0.50928691  0.78960509     0.28200
H1763       H  0.71502489  0.54045499  0.74185201     0.18800
H1764       H  0.71093271  0.55289652  0.89241396     0.18800
C1765       C  0.83048425  0.64909039  0.69201144    -0.07100
C1766       C  0.82957036  0.67152743  0.71485782    -0.18200
C1767       C  0.83098139  0.69650682  0.69570097     0.10100
C1768       C  0.83447508  0.70014853  0.65247817    -0.07000
C1769       C  0.83578813  0.67792889  0.62970448    -0.18200
C1770       C  0.83415931  0.65285860  0.64877168     0.10200
S1771       S  0.82585634  0.72169125  0.72786026    -0.33200
S1772       S  0.83833386  0.62726186  0.61616829    -0.33200
H1773       H  0.85582122  0.62220199  0.64454610     0.28200
H1774       H  0.80832115  0.72633632  0.69904951     0.28200
H1775       H  0.82637029  0.66895473  0.74784807     0.18800
H1776       H  0.83888558  0.68047284  0.59669083     0.18800
C1777       C  0.85226560  0.64442866  0.89698497    -0.07100
C1778       C  0.85867694  0.67304651  0.88523486    -0.18200
C1779       C  0.86972319  0.69610695  0.91372456     0.10100
C1780       C  0.87409464  0.69018651  0.95452768    -0.07000
C1781       C  0.86403214  0.66095909  0.96736417    -0.18200
C1782       C  0.85301081  0.63787008  0.93896565     0.10200
S1783       S  0.87938061  0.73273497  0.89591153    -0.33200
S1784       S  0.84187691  0.60113125  0.95797019    -0.33200
H1785       H  0.82148587  0.58589657  0.92614304     0.28200
H1786       H  0.87791676  0.74394211  0.93456589     0.28200
H1787       H  0.85747035  0.67811605  0.85316987     0.18800
H1788       H  0.86684546  0.65644490  0.99914641     0.18800
C1789       C  0.01390767  0.80314766  0.29091858    -0.07100
C1790       C  0.98269636  0.78659856  0.28864785    -0.18200
C1791       C  0.96764958  0.77954366  0.25069495     0.10100
C1792       C  0.98416249  0.79011500  0.21360817    -0.07000
C1793       C  0.01538843  0.80489359  0.21580476    -0.18200
C1794       C  0.03033678  0.81082612  0.25362479     0.10200
S1795       S  0.92746964  0.75592761  0.25063398    -0.33200
S1796       S  0.07029816  0.82717250  0.25161529    -0.33200
H1797       H  0.07157889  0.81010573  0.28438136     0.28200
H1798       H  0.92327427  0.75482438  0.29344396     0.28200
H1799       H  0.96997003  0.77957266  0.31685035     0.18800
H1800       H  0.02839117  0.81200841  0.18778326     0.18800
C1801       C  0.13679848  0.92994913  0.46343255    -0.07100
C1802       C  0.14413408  0.92877187  0.50499431    -0.18200
C1803       C  0.16708170  0.95344499  0.52515968     0.10100
C1804       C  0.18260171  0.98101493  0.50445646    -0.07000
C1805       C  0.17396383  0.98290299  0.46393003    -0.18200
C1806       C  0.15165885  0.95779847  0.44313095     0.10200
S1807       S  0.17744115  0.94718861  0.57563321    -0.33200
S1808       S  0.14490800  0.96257817  0.39011942    -0.33200
H1809       H  0.14713316  0.93824068  0.37630515     0.28200
H1810       H  0.20795828  0.96056243  0.56625588     0.28200
H1811       H  0.13296801  0.90785060  0.52156914     0.18800
H1812       H  0.18569369  0.00387616  0.44756773     0.18800
C1813       C  0.97391694  0.79991611  0.50050300    -0.07100
C1814       C  0.97561118  0.81124425  0.54042942    -0.18200
C1815       C  0.95055512  0.80903723  0.56036927     0.10100
C1816       C  0.92226379  0.79424009  0.54088354    -0.07000
C1817       C  0.92113684  0.78495994  0.49977705    -0.18200
C1818       C  0.94621605  0.78753006  0.47962860     0.10200
S1819       S  0.95620844  0.82439904  0.61127077    -0.33200
S1820       S  0.94050142  0.77251263  0.42837076    -0.33200
H1821       H  0.95106430  0.75309127  0.43813551     0.28200
H1822       H  0.94447295  0.84275949  0.60099410     0.28200
H1823       H  0.99666888  0.82146755  0.55683228     0.18800
H1824       H  0.90008916  0.77440652  0.48334194     0.18800
C1825       C  0.18499562  0.83238782  0.31223438    -0.07100
C1826       C  0.18313943  0.85812425  0.30591167    -0.18200
C1827       C  0.16269719  0.86313878  0.32732532     0.10100
C1828       C  0.14276973  0.84178927  0.35601588    -0.07000
C1829       C  0.14439689  0.81584346  0.36202959    -0.18200
C1830       C  0.16463650  0.81066064  0.34010035     0.10200
S1831       S  0.16460397  0.89815803  0.31787301    -0.33200
S1832       S  0.16180204  0.77497291  0.34721394    -0.33200
H1833       H  0.16505069  0.77087603  0.30517508     0.28200
H1834       H  0.16456575  0.90426629  0.35997144     0.28200
H1835       H  0.19842802  0.87510397  0.28482985     0.18800
H1836       H  0.12902418  0.79885002  0.38301680     0.18800
C1837       C  0.94951450  0.63993264  0.42073715    -0.07100
C1838       C  0.96399854  0.65067293  0.45840117    -0.18200
C1839       C  0.98120875  0.68134711  0.46642566     0.10100
C1840       C  0.98339468  0.70238221  0.43616253    -0.07000
C1841       C  0.96755037  0.69136262  0.39917535    -0.18200
C1842       C  0.95063401  0.66067541  0.39129368     0.10200
S1843       S  0.00201918  0.69243927  0.51432179    -0.33200
S1844       S  0.93090406  0.64947891  0.34289671    -0.33200
H1845       H  0.90734312  0.62226445  0.35741293     0.28200
H1846       H  0.99322595  0.66391326  0.52971759     0.28200
H1847       H  0.96342697  0.63487074  0.48062212     0.18800
H1848       H  0.96841411  0.70676726  0.37597937     0.18800
C1849       C  0.12277566  0.65810086  0.96119934    -0.07100
C1850       C  0.11705690  0.64094289  0.92526550    -0.18200
C1851       C  0.12355639  0.65379204  0.88603646     0.10100
C1852       C  0.13560942  0.68479691  0.88155305    -0.07000
C1853       C  0.14091266  0.70195569  0.91732352    -0.18200
C1854       C  0.13501843  0.68923956  0.95671154     0.10200
S1855       S  0.11737272  0.62939772  0.84339215    -0.33200
S1856       S  0.14435376  0.71442861  0.99943744    -0.33200
H1857       H  0.16131691  0.70399473  0.01968572     0.28200
H1858       H  0.14574414  0.64835511  0.82673355     0.28200
H1859       H  0.10772618  0.61710547  0.92750938     0.18800
H1860       H  0.15007175  0.72574601  0.91474401     0.18800
C1861       C  0.30720641  0.84801466  0.66446926    -0.07100
C1862       C  0.28023560  0.83382513  0.64261099    -0.18200
C1863       C  0.25393316  0.81177414  0.66099930     0.10100
C1864       C  0.25390708  0.80460083  0.70327580    -0.07000
C1865       C  0.28152586  0.81614209  0.72342384    -0.18200
C1866       C  0.30814364  0.83702133  0.70407704     0.10200
S1867       S  0.22135878  0.79369146  0.62838386    -0.33200
S1868       S  0.34258465  0.84861499  0.73133207    -0.33200
H1869       H  0.36007501  0.85477325  0.69571508     0.28200
H1870       H  0.20990992  0.76557519  0.64699569     0.28200
H1871       H  0.27925699  0.84080454  0.61148390     0.18800
H1872       H  0.28238846  0.80957123  0.75480961     0.18800
C1873       C  0.96646341  0.62466889  0.75952501    -0.07100
C1874       C  0.98577685  0.62530088  0.79066975    -0.18200
C1875       C  0.01669409  0.63883401  0.78457354     0.10100
C1876       C  0.02915078  0.65301556  0.74666982    -0.07000
C1877       C  0.00942838  0.65071757  0.71490334    -0.18200
C1878       C  0.97867081  0.63715459  0.72091135     0.10200
S1879       S  0.03862801  0.63668232  0.82608838    -0.33200
S1880       S  0.95687738  0.63912751  0.67901023    -0.33200
H1881       H  0.94119934  0.64879680  0.70361997     0.28200
H1882       H  0.05716186  0.63146954  0.80020845     0.28200
H1883       H  0.97669099  0.61524692  0.82027127     0.18800
H1884       H  0.01805557  0.66115981  0.68537420     0.18800
C1885       C  0.13832569  0.79385203  0.62116908    -0.07100
C1886       C  0.14486677  0.79182314  0.58010355    -0.18200
C1887       C  0.13488782  0.80293990  0.54889090     0.10100
C1888       C  0.11806537  0.81645327  0.55921279    -0.07000
C1889       C  0.11450066  0.82148817  0.60052280    -0.18200
C1890       C  0.12455558  0.81036090  0.63180263     0.10200
S1891       S  0.14142327  0.79598161  0.49677024    -0.33200
S1892       S  0.11666681  0.81568548  0.68404453    -0.33200
H1893       H  0.10612820  0.78621123  0.69672855     0.28200
H1894       H  0.11126871  0.78231813  0.48504117     0.28200
H1895       H  0.15585429  0.77950362  0.57214325     0.18800
H1896       H  0.10208086  0.83238318  0.60840878     0.18800
C1897       C  0.16671025  0.81513636  0.81716524    -0.07100
C1898       C  0.15783542  0.83211501  0.79350711    -0.18200
C1899       C  0.15367548  0.85435595  0.81104243     0.10100
C1900       C  0.15831153  0.86014789  0.85375136    -0.07000
C1901       C  0.16706253  0.84309673  0.87729883    -0.18200
C1902       C  0.17077015  0.82057680  0.85992970     0.10200
S1903       S  0.14368973  0.87516804  0.77670708    -0.33200
S1904       S  0.17852808  0.79833027  0.89469665    -0.33200
H1905       H  0.15695414  0.77130212  0.87696090     0.28200
H1906       H  0.16529700  0.90290234  0.79257848     0.28200
H1907       H  0.15469936  0.82851390  0.76065074     0.18800
H1908       H  0.17005102  0.84661923  0.91006392     0.18800
C1909       C  0.25447244  0.45727191  0.21052816    -0.07100
C1910       C  0.25570967  0.45576266  0.16749323    -0.18200
C1911       C  0.28091304  0.45894218  0.14735015     0.10100
C1912       C  0.30597574  0.46317243  0.17047528    -0.07000
C1913       C  0.30516891  0.46603695  0.21355473    -0.18200
C1914       C  0.28005052  0.46337914  0.23360073     0.10200
S1915       S  0.27826889  0.45523259  0.09234355    -0.33200
S1916       S  0.28110084  0.46514528  0.28885574    -0.33200
H1917       H  0.27668543  0.48965956  0.28984428     0.28200
H1918       H  0.30401793  0.48306419  0.08573767     0.28200
H1919       H  0.23644764  0.45141158  0.14914758     0.18800
H1920       H  0.32397074  0.46946911  0.23220869     0.18800
C1921       C  0.12123346  0.48540459  0.17054033    -0.07100
C1922       C  0.11401201  0.50295247  0.19525341    -0.18200
C1923       C  0.11062025  0.52601449  0.17843155     0.10100
C1924       C  0.11409131  0.53166349  0.13547995    -0.07000
C1925       C  0.12353652  0.51566475  0.11136074    -0.18200
C1926       C  0.12763309  0.49314779  0.12837503     0.10200
S1927       S  0.10270705  0.54850605  0.21264862    -0.33200
S1928       S  0.14152690  0.47555614  0.09450480    -0.33200
H1929       H  0.15908459  0.47225024  0.12480421     0.28200
H1930       H  0.09501327  0.52975895  0.24720323     0.28200
H1931       H  0.11002470  0.49796236  0.22773054     0.18800
H1932       H  0.12716824  0.52026641  0.07871906     0.18800
C1933       C  0.16679677  0.36287219  0.31529123    -0.07100
C1934       C  0.14076916  0.33542222  0.30796595    -0.18200
C1935       C  0.13549017  0.30932944  0.32803455     0.10100
C1936       C  0.15710413  0.31007359  0.35549634    -0.07000
C1937       C  0.18313009  0.33750956  0.36281911    -0.18200
C1938       C  0.18836677  0.36360242  0.34283466     0.10200
S1939       S  0.09983385  0.27638231  0.31916002    -0.33200
S1940       S  0.22388763  0.39656861  0.35200344    -0.33200
H1941       H  0.22847340  0.40498088  0.31032077     0.28200
H1942       H  0.09518497  0.26768698  0.36076410     0.28200
H1943       H  0.12380582  0.33440382  0.28740352     0.18800
H1944       H  0.20006415  0.33854594  0.38346483     0.18800
C1945       C  0.13513582  0.21785199  0.96460599    -0.07100
C1946       C  0.14464651  0.22812085  0.00504849    -0.18200
C1947       C  0.16782634  0.22626057  0.02405652     0.10100
C1948       C  0.18176490  0.21280261  0.00316596    -0.07000
C1949       C  0.17139043  0.20113154  0.96359801    -0.18200
C1950       C  0.14814923  0.20311984  0.94442508     0.10200
S1951       S  0.18041219  0.24435583  0.07323348    -0.33200
S1952       S  0.13727305  0.18759154  0.89369483    -0.33200
H1953       H  0.10728405  0.16891544  0.90495716     0.28200
H1954       H  0.21045019  0.26093465  0.06119080     0.28200
H1955       H  0.13493532  0.23917450  0.02164978     0.18800
H1956       H  0.18178524  0.19069070  0.94713374     0.18800
C1957       C  0.92105345  0.14438625  0.04278952    -0.07100
C1958       C  0.91999611  0.15332792  0.00213186    -0.18200
C1959       C  0.94529730  0.17538078  0.98205363     0.10100
C1960       C  0.97335397  0.18859308  0.00194548    -0.07000
C1961       C  0.97494159  0.17823887  0.04147373    -0.18200
C1962       C  0.94930280  0.15671271  0.06219034     0.10200
S1963       S  0.93933644  0.18743767  0.93272362    -0.33200
S1964       S  0.95422489  0.14757045  0.11396875    -0.33200
H1965       H  0.93202084  0.15242748  0.13034532     0.28200
H1966       H  0.95267007  0.21740197  0.94473032     0.28200
H1967       H  0.89884815  0.14398733  0.98606523     0.18800
H1968       H  0.99622372  0.18804908  0.05726951     0.18800
C1969       C  0.11945013  0.31534676  0.05781713    -0.07100
C1970       C  0.13551720  0.34513248  0.04500499    -0.18200
C1971       C  0.14585768  0.36811097  0.07368097     0.10100
C1972       C  0.13984214  0.36092658  0.11561968    -0.07000
C1973       C  0.12748328  0.33130666  0.12858176    -0.18200
C1974       C  0.11738948  0.30837635  0.09994739     0.10200
S1975       S  0.16532781  0.40590106  0.05507542    -0.33200
S1976       S  0.10091410  0.27071796  0.11866749    -0.33200
H1977       H  0.10716130  0.25943606  0.08319108     0.28200
H1978       H  0.18156507  0.41842609  0.09148408     0.28200
H1979       H  0.13788845  0.35053758  0.01250539     0.18800
H1980       H  0.12376547  0.32582032  0.16102064     0.18800
C1981       C  0.14356842  0.31189235  0.85758483    -0.07100
C1982       C  0.14205020  0.31332537  0.81457010    -0.18200
C1983       C  0.16257862  0.33855815  0.79246075     0.10100
C1984       C  0.18623789  0.36290724  0.81335295    -0.07000
C1985       C  0.18806407  0.36131177  0.85634580    -0.18200
C1986       C  0.16737672  0.33611572  0.87849742     0.10200
S1987       S  0.15587498  0.33899225  0.73810371    -0.33200
S1988       S  0.17368955  0.33567345  0.93300799    -0.33200
H1989       H  0.16442996  0.30521060  0.93477801     0.28200
H1990       H  0.16470852  0.36934071  0.73644588     0.28200
H1991       H  0.12395978  0.29506711  0.79809744     0.18800
H1992       H  0.20629733  0.37953097  0.87277096     0.18800
C1993       C  0.11602532  0.47320156  0.45858859    -0.07100
C1994       C  0.13221880  0.45838335  0.45720518    -0.18200
C1995       C  0.13938173  0.45031690  0.41983828     0.10100
C1996       C  0.13125760  0.45820812  0.38202067    -0.07000
C1997       C  0.11432250  0.47232457  0.38345159    -0.18200
C1998       C  0.10607493  0.47922410  0.42095626     0.10200
S1999       S  0.15803859  0.42908566  0.42339813    -0.33200
S2000       S  0.08152824  0.49421898  0.41831514    -0.33200
H2001       H  0.06350079  0.47646606  0.45085838     0.28200
H2002       H  0.13960856  0.40799534  0.39388792     0.28200
H2003       H  0.13949531  0.45302023  0.48559423     0.18800
H2004       H  0.10722837  0.47792561  0.35510118     0.18800
C2005       C  0.12265255  0.60057639  0.62872126    -0.07100
C2006       C  0.13336081  0.60792213  0.66930084    -0.18200
C2007       C  0.13714683  0.63381632  0.68844053     0.10100
C2008       C  0.12883282  0.65240014  0.66736505    -0.07000
C2009       C  0.12016072  0.64590665  0.62573148    -0.18200
C2010       C  0.11674365  0.62034417  0.60653211     0.10200
S2011       S  0.15312356  0.64196102  0.73923290    -0.33200
S2012       S  0.10205430  0.61290427  0.55483447    -0.33200
H2013       H  0.08200194  0.58248020  0.56123558     0.28200
H2014       H  0.16995659  0.67287692  0.73282348     0.28200
H2015       H  0.13851610  0.59316363  0.68639538     0.18800
H2016       H  0.11398254  0.65978674  0.60838538     0.18800
C2017       C  0.19357142  0.45825999  0.70666085    -0.07100
C2018       C  0.18757685  0.45243232  0.66431354    -0.18200
C2019       C  0.16462793  0.45450413  0.64466249     0.10100
C2020       C  0.14733459  0.46350176  0.66732287    -0.07000
C2021       C  0.15483078  0.47146858  0.70890664    -0.18200
C2022       C  0.17755608  0.46903178  0.72864878     0.10200
S2023       S  0.15695549  0.44252437  0.59184293    -0.33200
S2024       S  0.18293966  0.47735283  0.78271954    -0.33200
H2025       H  0.21296444  0.49961611  0.77777136     0.28200
H2026       H  0.12656378  0.42220603  0.59890358     0.28200
H2027       H  0.19987062  0.44456940  0.64662407     0.18800
H2028       H  0.14213576  0.47874646  0.72680643     0.18800
C2029       C  0.97196508  0.50107479  0.48641138    -0.07100
C2030       C  0.97593527  0.50885991  0.52830813    -0.18200
C2031       C  0.00186475  0.51455229  0.54975892     0.10100
C2032       C  0.02435165  0.51173729  0.52937877    -0.07000
C2033       C  0.02030679  0.50400106  0.48749720    -0.18200
C2034       C  0.99437807  0.49812733  0.46616837     0.10200
S2035       S  0.00558483  0.52707761  0.60221463    -0.33200
S2036       S  0.99046816  0.48504788  0.41395571    -0.33200
H2037       H  0.95956251  0.46514437  0.41627413     0.28200
H2038       H  0.03646148  0.54704950  0.60028084     0.28200
H2039       H  0.95911376  0.51150764  0.54416371     0.18800
H2040       H  0.03709810  0.50148464  0.47147452     0.18800
C2041       C  0.87765984  0.47640744  0.87774692    -0.07100
C2042       C  0.88332604  0.48248235  0.83547998    -0.18200
C2043       C  0.88239573  0.50614172  0.81651180     0.10100
C2044       C  0.87385287  0.52369154  0.83931329    -0.07000
C2045       C  0.86683097  0.51686200  0.88122466    -0.18200
C2046       C  0.86873623  0.49368600  0.90060498     0.10200
S2047       S  0.89603796  0.51477384  0.76457674    -0.33200
S2048       S  0.86239562  0.48935660  0.95517367    -0.33200
H2049       H  0.83901327  0.45972375  0.95165282     0.28200
H2050       H  0.91530068  0.54524733  0.77241698     0.28200
H2051       H  0.89041772  0.46975777  0.81729969     0.18800
H2052       H  0.86067222  0.53030555  0.89946793     0.18800
C2053       C  0.84736276  0.31555502  0.83394093    -0.07100
C2054       C  0.84403524  0.31414124  0.79070896    -0.18200
C2055       C  0.81996345  0.28987557  0.77099224     0.10100
C2056       C  0.79919743  0.26524069  0.79439189    -0.07000
C2057       C  0.80145747  0.26730981  0.83751891    -0.18200
C2058       C  0.82449307  0.29222190  0.85743338     0.10200
S2059       S  0.81806507  0.29090616  0.71582979    -0.33200
S2060       S  0.82356660  0.29181508  0.91280704    -0.33200
H2061       H  0.82505377  0.31953362  0.91523757     0.28200
H2062       H  0.78874447  0.28575331  0.71583551     0.28200
H2063       H  0.86055666  0.33194757  0.77177528     0.18800
H2064       H  0.78526613  0.24894613  0.85608377     0.18800
C2065       C  0.95152527  0.32321282  0.91579199    -0.07100
C2066       C  0.95352830  0.30571346  0.88433029    -0.18200
C2067       C  0.96808359  0.28941553  0.89025250     0.10100
C2068       C  0.98132949  0.29036996  0.92883533    -0.07000
C2069       C  0.97768561  0.30653152  0.96089255    -0.18200
C2070       C  0.96388840  0.32339988  0.95462833     0.10200
S2071       S  0.96906013  0.26838358  0.84697155    -0.33200
S2072       S  0.96615177  0.34725777  0.99623705    -0.33200
H2073       H  0.97647287  0.37268517  0.97124759     0.28200
H2074       H  0.96180362  0.24284504  0.87034352     0.28200
H2075       H  0.94401226  0.30504533  0.85435562     0.18800
H2076       H  0.98752905  0.30790907  0.99081955     0.18800
C2077       C  0.97824340  0.45769927  0.78645564    -0.07100
C2078       C  0.97137011  0.45600608  0.74461246    -0.18200
C2079       C  0.99384753  0.46706698  0.71526081     0.10100
C2080       C  0.02390798  0.48079898  0.72811175    -0.07000
C2081       C  0.03088994  0.48439187  0.77007508    -0.18200
C2082       C  0.00834254  0.47287050  0.79950014     0.10200
S2083       S  0.98252282  0.45948980  0.66215788    -0.33200
S2084       S  0.01946622  0.47586832  0.85271301    -0.33200
H2085       H  0.99902093  0.44605536  0.86249316     0.28200
H2086       H  0.00050363  0.44710232  0.65373734     0.28200
H2087       H  0.94827965  0.44419268  0.73466866     0.18800
H2088       H  0.05396157  0.49475348  0.77989878     0.18800
C2089       C  0.97076166  0.47941944  0.98514182    -0.07100
C2090       C  0.99560228  0.49969362  0.96200151    -0.18200
C2091       C  0.02095574  0.52293198  0.98067419     0.10100
C2092       C  0.02217940  0.52607281  0.02401263    -0.07000
C2093       C  0.99755492  0.50542131  0.04725714    -0.18200
C2094       C  0.97227104  0.48200026  0.02854754     0.10200
S2095       S  0.05003265  0.54872581  0.94694356    -0.33200
S2096       S  0.94367338  0.45526499  0.06205562    -0.33200
H2097       H  0.93944862  0.43051562  0.03921491     0.28200
H2098       H  0.05408038  0.57405095  0.96804457     0.28200
H2099       H  0.99490539  0.49816747  0.92874391     0.18800
H2100       H  0.99834995  0.50693904  0.08052000     0.18800
C2101       C  0.97995671  0.20408530  0.71617031    -0.07100
C2102       C  0.01109405  0.22244954  0.71756728    -0.18200
C2103       C  0.02663644  0.23089043  0.75498168     0.10100
C2104       C  0.01111922  0.21967611  0.79253016    -0.07000
C2105       C  0.97990667  0.20263726  0.79138999    -0.18200
C2106       C  0.96410181  0.19517528  0.75402299     0.10200
S2107       S  0.06602843  0.25730261  0.75242138    -0.33200
S2108       S  0.92376051  0.17562675  0.75608119    -0.33200
H2109       H  0.92072042  0.16966865  0.79855552     0.28200
H2110       H  0.06611613  0.27373494  0.78677876     0.28200
H2111       H  0.02357603  0.23050646  0.68922163     0.18800
H2112       H  0.96781273  0.19494931  0.82003654     0.18800
C2113       C  0.81201612  0.02788098  0.50003232    -0.07100
C2114       C  0.81687271  0.02757519  0.54275676    -0.18200
C2115       C  0.83934958  0.05250914  0.56353084     0.10100
C2116       C  0.85738919  0.07919801  0.54174084    -0.07000
C2117       C  0.85385993  0.07893819  0.49871311    -0.18200
C2118       C  0.83206485  0.05374652  0.47768214     0.10200
S2119       S  0.84194931  0.04956704  0.61833088    -0.33200
S2120       S  0.83014436  0.05713209  0.42276254    -0.33200
H2121       H  0.83217691  0.03166411  0.41471166     0.28200
H2122       H  0.87190034  0.05669708  0.61674512     0.28200
H2123       H  0.80236061  0.00795042  0.56065161     0.18800
H2124       H  0.86792882  0.09891648  0.48114994     0.18800
C2125       C  0.01739200  0.21375912  0.50370282    -0.07100
C2126       C  0.01670254  0.20673591  0.46157598    -0.18200
C2127       C  0.04159788  0.20873530  0.44128089     0.10100
C2128       C  0.06866311  0.21848306  0.46289759    -0.07000
C2129       C  0.06913390  0.22490431  0.50515762    -0.18200
C2130       C  0.04427720  0.22263557  0.52555782     0.10200
S2131       S  0.03794244  0.20069980  0.38712845    -0.33200
S2132       S  0.04953594  0.23381440  0.57872711    -0.33200
H2133       H  0.02698814  0.20574053  0.59242474     0.28200
H2134       H  0.04473071  0.17786870  0.39156780     0.28200
H2135       H  0.99663589  0.20008110  0.44378676     0.18800
H2136       H  0.08946544  0.23243188  0.52272912     0.18800
C2137       C  0.84901652  0.16610158  0.65081612    -0.07100
C2138       C  0.84944406  0.19319013  0.64626108    -0.18200
C2139       C  0.82918218  0.19882859  0.66697029     0.10100
C2140       C  0.80708337  0.17667930  0.69253749    -0.07000
C2141       C  0.80669941  0.14962171  0.69731198    -0.18200
C2142       C  0.82696754  0.14395153  0.67652474     0.10200
S2143       S  0.83394112  0.23539828  0.66108573    -0.33200
S2144       S  0.82218065  0.10735592  0.68237223    -0.33200
H2145       H  0.82782196  0.10456586  0.64082274     0.28200
H2146       H  0.82834275  0.23804051  0.70270131     0.28200
H2147       H  0.86634405  0.21060361  0.62720730     0.18800
H2148       H  0.78975357  0.13224251  0.71636273     0.18800
C2149       C  0.00846944  0.30742961  0.58110917    -0.07100
C2150       C  0.00941855  0.32704397  0.55017605    -0.18200
C2151       C  0.02435736  0.35791121  0.55555301     0.10100
C2152       C  0.03966731  0.37047106  0.59266260    -0.07000
C2153       C  0.03965228  0.35111007  0.62325783    -0.18200
C2154       C  0.02463887  0.32004278  0.61784709     0.10200
S2155       S  0.02081646  0.37956325  0.51491137    -0.33200
S2156       S  0.02755340  0.29813923  0.65868200    -0.33200
H2157       H  0.03158145  0.27918704  0.63210215     0.28200
H2158       H  0.01320463  0.39598007  0.54143953     0.28200
H2159       H  0.99716670  0.31829307  0.52173686     0.18800
H2160       H  0.05148736  0.36028776  0.65188370     0.18800
C2161       C  0.86008592  0.32302918  0.12627203    -0.07100
C2162       C  0.86173836  0.30737260  0.09220827    -0.18200
C2163       C  0.86907049  0.32017861  0.05289730     0.10100
C2164       C  0.87422609  0.34939014  0.04668724    -0.07000
C2165       C  0.87286158  0.36501720  0.08129890    -0.18200
C2166       C  0.86559125  0.35217956  0.12046020     0.10200
S2167       S  0.87180614  0.29795491  0.01277110    -0.33200
S2168       S  0.86168330  0.37351421  0.16095514    -0.33200
H2169       H  0.83658482  0.34924131  0.17894593     0.28200
H2170       H  0.90084508  0.32005340  0.00216438     0.28200
H2171       H  0.85767049  0.28495870  0.09637856     0.18800
H2172       H  0.87664150  0.38736331  0.07793404     0.18800
C2173       C  0.68237476  0.15570576  0.33358337    -0.07100
C2174       C  0.68345447  0.15926095  0.29042712    -0.18200
C2175       C  0.70836883  0.18226823  0.27059711     0.10100
C2176       C  0.73348260  0.20222930  0.29397408    -0.07000
C2177       C  0.73160266  0.20016908  0.33711616    -0.18200
C2178       C  0.70641956  0.17770403  0.35712052     0.10200
S2179       S  0.70787206  0.18296599  0.21529824    -0.33200
S2180       S  0.70772146  0.17767455  0.41249418    -0.33200
H2181       H  0.68013965  0.17639476  0.41666355     0.28200
H2182       H  0.71400232  0.21252610  0.21356244     0.28200
H2183       H  0.66516632  0.14328094  0.27152410     0.18800
H2184       H  0.75048034  0.21574503  0.35557225     0.18800
C2185       C  0.87045422  0.36058999  0.33735479    -0.07100
C2186       C  0.86113697  0.35951199  0.37833999    -0.18200
C2187       C  0.86383988  0.38471744  0.39833713     0.10100
C2188       C  0.87690443  0.41245196  0.37759784    -0.07000
C2189       C  0.88463573  0.41301654  0.33591752    -0.18200
C2190       C  0.88193303  0.38792663  0.31597203     0.10200
S2191       S  0.85134689  0.38002528  0.45076721    -0.33200
S2192       S  0.89640347  0.39345229  0.26451027    -0.33200
H2193       H  0.91573294  0.38277749  0.27432307     0.28200
H2194       H  0.83137903  0.39021899  0.44255572     0.28200
H2195       H  0.85201451  0.33884136  0.39539031     0.18800
H2196       H  0.89422254  0.43369628  0.31880917     0.18800
C2197       C  0.84584507  0.21262173  0.39083660    -0.07100
C2198       C  0.84066380  0.21555516  0.43224546    -0.18200
C2199       C  0.85146938  0.20478759  0.46303859     0.10100
C2200       C  0.86938553  0.19261544  0.45195602    -0.07000
C2201       C  0.87153718  0.18658468  0.41062670    -0.18200
C2202       C  0.85887281  0.19546614  0.37991260     0.10200
S2203       S  0.84548699  0.21126613  0.51559650    -0.33200
S2204       S  0.86367981  0.18788673  0.32734766    -0.33200
H2205       H  0.83363659  0.17696600  0.31673270     0.28200
H2206       H  0.83487809  0.18164236  0.52775520     0.28200
H2207       H  0.82989645  0.22799789  0.44064021     0.18800
H2208       H  0.88448808  0.17637181  0.40214418     0.18800
C2209       C  0.96336095  0.34974598  0.26324649    -0.07100
C2210       C  0.98297589  0.34970459  0.29352782    -0.18200
C2211       C  0.01387834  0.36437390  0.28786376     0.10100
C2212       C  0.02640567  0.38078668  0.25154283    -0.07000
C2213       C  0.00712168  0.38177972  0.22175312    -0.18200
C2214       C  0.97603710  0.36665159  0.22706457     0.10200
S2215       S  0.03557738  0.35880636  0.32656523    -0.33200
S2216       S  0.95426139  0.36978024  0.18615833    -0.33200
H2217       H  0.93522916  0.37374939  0.21252621     0.28200
H2218       H  0.05255724  0.35314994  0.29830532     0.28200
H2219       H  0.97416479  0.33670543  0.32135250     0.18800
H2220       H  0.01637602  0.39419598  0.19357856     0.18800
C2221       C  0.82037439  0.19006166  0.19297630    -0.07100
C2222       C  0.84727828  0.19009897  0.19798306    -0.18200
C2223       C  0.85310575  0.17026662  0.17646145     0.10100
C2224       C  0.83111252  0.14860320  0.15008205    -0.07000
C2225       C  0.80390563  0.14815295  0.14573501    -0.18200
C2226       C  0.79822819  0.16826441  0.16693452     0.10200
S2227       S  0.89000611  0.17554748  0.18177372    -0.33200
S2228       S  0.76175332  0.16391608  0.16076147    -0.33200
H2229       H  0.75919196  0.16995883  0.20220797     0.28200
H2230       H  0.89336758  0.17239461  0.13947397     0.28200
H2231       H  0.86464258  0.20673936  0.21743503     0.18800
H2232       H  0.78655480  0.13154473  0.12623716     0.18800
loop_ 
_geom_bond_atom_site_label_1 
_geom_bond_atom_site_label_2 
_geom_bond_distance 
_geom_bond_site_symmetry_2 
_ccdc_geom_bond_type 
O1           Ni7   1.931       .  S
O1           C22   1.275       .  A
O2          Ni25   1.879       .  S
O2           C11   1.257       .  A
O3           Ni7   1.912       .  S
O3          Ni25   1.895       .  S
O3          Ni19   1.928       .  S
O3           H26   0.966       .  S
C4           O21   1.285       .  A
C4           O13   1.280       .  A
C4         C2209   1.502       .  S
O5          Ni24   1.933       .  S
O5           C11   1.273       .  A
O6          Ni24   1.908       .  S
O6            C8   1.269       .  A
Ni7          O10   1.939       .  S
Ni7          O12   1.924       .  S
C8           O18   1.279       .  A
C8         C2185   1.502       .  S
O9          Ni25   1.905       .  S
O9           C15   1.270       .  A
O10          C15   1.277       .  A
C11        C2197   1.461       .  S
O12          C14   1.270       .  A
O13         Ni24   1.927       .  S
C14          O20   1.270       .  A
C14        C2221   1.496       .  S
C15        C2176   1.487       .  S
H16          O17   0.966       .  S
O17         Ni25   1.899       .  S
O17         Ni19   1.892       .  S
O17         Ni24   1.896       .  S
O18         Ni19   1.955       .  S
Ni19         O23   1.917       .  S
Ni19         O21   1.938       .  S
O20         Ni25   1.926       .  S
C22          O23   1.276       .  A
C22        C2161   1.481       .  S
O27         Ni33   1.932       .  S
O27          C48   1.275       .  A
O28         Ni51   1.878       .  S
O28          C37   1.257       .  A
O29         Ni33   1.916       .  S
O29         Ni51   1.901       .  S
O29         Ni45   1.935       .  S
O29          H52   0.966       .  S
C30          O47   1.285       .  A
C30          O39   1.279       .  A
C30        C2149   1.502   1_655  S
O31         Ni50   1.937       .  S
O31          C37   1.274       .  A
O32         Ni50   1.911       .  S
O32          C34   1.270       .  A
Ni33         O36   1.945       .  S
Ni33         O38   1.926       .  S
C34          O44   1.281       .  A
C34        C2125   1.511   1_655  S
O35         Ni51   1.908       .  S
O35          C41   1.269       .  A
O36          C41   1.277       .  A
C37        C2200   1.462       .  S
O38          C40   1.271       .  A
O39         Ni50   1.928       .  S
C40          O46   1.271       .  A
C40        C2137   1.495       .  S
C41        C2116   1.498       .  S
H42          O43   0.967       .  S
O43         Ni51   1.895       .  S
O43         Ni45   1.889       .  S
O43         Ni50   1.896       .  S
O44         Ni45   1.962       .  S
Ni45         O49   1.917       .  S
Ni45         O47   1.939       .  S
O46         Ni51   1.925       .  S
C48          O49   1.277       .  A
C48        C2101   1.496       .  S
O53         Ni59   1.929   1_554  S
O53          C74   1.275       .  A
O54         Ni77   1.888       .  S
O54          C63   1.260       .  A
O55         Ni59   1.910       .  S
O55         Ni77   1.899       .  S
O55         Ni71   1.933       .  S
O55          H78   0.966       .  S
C56          O73   1.286       .  A
C56          O65   1.280       .  A
C56        C2065   1.493       .  S
O57         Ni76   1.922       .  S
O57          C63   1.270       .  A
O58         Ni76   1.910       .  S
O58          C60   1.270       .  A
Ni59         O62   1.941       .  S
Ni59         O64   1.918       .  S
C60          O70   1.274       .  A
C60        C2053   1.504       .  S
O61         Ni77   1.907       .  S
O61          C67   1.271       .  A
O62          C67   1.277       .  A
C63        C2077   1.458       .  S
O64          C66   1.269       .  A
O65         Ni76   1.926       .  S
C66          O72   1.269       .  A
C66        C2089   1.488       .  S
C67        C2041   1.496       .  S
H68          O69   0.966       .  S
O69         Ni77   1.901       .  S
O69         Ni71   1.883       .  S
O69         Ni76   1.893       .  S
O70         Ni71   1.940       .  S
Ni71         O75   1.917       .  S
Ni71         O73   1.935       .  S
O72         Ni77   1.917       .  S
C74          O75   1.274   1_554  A
C74        C2164   1.499       .  S
O79         Ni85   1.930       .  S
O79         C100   1.273       .  A
O80        Ni103   1.891       .  S
O80          C89   1.260       .  A
O81         Ni85   1.917       .  S
O81        Ni103   1.908       .  S
O81         Ni97   1.939       .  S
O81         H104   0.966       .  S
C82          O99   1.288       .  A
C82          O91   1.278       .  A
C82        C2152   1.495       .  S
O83        Ni102   1.917       .  S
O83          C89   1.266       .  A
O84        Ni102   1.899       .  S
O84          C86   1.267       .  A
Ni85         O88   1.941       .  S
Ni85         O90   1.914       .  S
C86          O96   1.276       .  A
C86        C2020   1.493       .  S
O87        Ni103   1.906       .  S
O87          C93   1.268       .  A
O88          C93   1.277       .  A
C89        C2080   1.459       .  S
O90          C92   1.270       .  A
O91        Ni102   1.921       .  S
C92          O98   1.274       .  A
C92        C2032   1.493       .  S
C93        C2005   1.483       .  S
H94          O95   0.966       .  S
O95        Ni103   1.907       .  S
O95         Ni97   1.888       .  S
O95        Ni102   1.904       .  S
O96         Ni97   1.945       .  S
Ni97        O101   1.913       .  S
Ni97         O99   1.944       .  S
O98        Ni103   1.937       .  S
C100        O101   1.275       .  A
C100       C1993   1.489       .  S
O105       Ni111   1.938       .  S
O105        C126   1.277       .  A
O106       Ni129   1.883       .  S
O106        C115   1.260   1_556  A
O107       Ni111   1.909       .  S
O107       Ni129   1.899       .  S
O107       Ni123   1.927       .  S
O107        H130   0.966       .  S
C108        O125   1.284       .  A
C108        O117   1.282       .  A
C108       C2068   1.502   1_455  S
O109       Ni128   1.933       .  S
O109        C115   1.272       .  A
O110       Ni128   1.904       .  S
O110        C112   1.266   1_554  A
Ni111       O114   1.945       .  S
Ni111       O116   1.924       .  S
C112        O122   1.276       .  A
C112       C1960   1.493   1_456  S
O113       Ni129   1.900       .  S
O113        C119   1.269       .  A
O114        C119   1.278       .  A
C115       C1969   1.458       .  S
O116        C118   1.272       .  A
O117       Ni128   1.933   1_556  S
C118        O124   1.272       .  A
C118       C1981   1.490       .  S
C119       C1945   1.499       .  S
H120        O121   0.967       .  S
O121       Ni129   1.891       .  S
O121       Ni123   1.885       .  S
O121       Ni128   1.893   1_556  S
O122       Ni123   1.948       .  S
Ni123       O127   1.909       .  S
Ni123       O125   1.931       .  S
O124       Ni129   1.926       .  S
C126        O127   1.274       .  A
C126       C2104   1.490       .  S
O131       Ni137   1.924       .  S
O131        C152   1.272       .  A
O132       Ni155   1.880       .  S
O132        C141   1.258       .  A
O133       Ni137   1.914       .  S
O133       Ni155   1.902       .  S
O133       Ni149   1.934       .  S
O133        H156   0.966       .  S
C134        O151   1.286       .  A
C134        O143   1.278       .  A
C134       C2212   1.489       .  S
O135       Ni154   1.934       .  S
O135        C141   1.272       .  A
O136       Ni154   1.904       .  S
O136        C138   1.268       .  A
Ni137       O140   1.937       .  S
Ni137       O142   1.919       .  S
C138        O148   1.278       .  A
C138       C1921   1.497       .  S
O139       Ni155   1.904       .  S
O139        C145   1.269       .  A
O140        C145   1.275       .  A
C141       C1972   1.458       .  S
O142        C144   1.270       .  A
O143       Ni154   1.923       .  S
C144        O150   1.271       .  A
C144       C1933   1.492       .  S
C145       C1909   1.491       .  S
H146        O147   0.967       .  S
O147       Ni155   1.896       .  S
O147       Ni149   1.890       .  S
O147       Ni154   1.899       .  S
O148       Ni149   1.948       .  S
Ni149       O153   1.916       .  S
Ni149       O151   1.938       .  S
O150       Ni155   1.924       .  S
C152        O153   1.276       .  A
C152       C1996   1.492       .  S
O157       Ni163   1.925       .  S
O157        C178   1.270       .  A
O158       Ni181   1.916       .  S
O158        C167   1.276       .  A
O159       Ni163   1.885       .  S
O159       Ni181   1.889       .  S
O159       Ni175   1.893       .  S
O159        H182   0.966       .  S
C160        O177   1.270       .  A
C160        O169   1.280       .  A
C160       C1864   1.497       .  S
O161       Ni180   1.939       .  S
O161        C167   1.279       .  A
O162       Ni180   1.940       .  S
O162        C164   1.274       .  A
Ni163       O166   1.928       .  S
Ni163       O168   1.898       .  S
C164        O174   1.265       .  A
C164       C1897   1.496       .  S
O165       Ni181   1.932       .  S
O165        C171   1.284       .  A
O166        C171   1.280       .  A
C167       C1852   1.493       .  S
O168        C170   1.266       .  A
O169       Ni180   1.947       .  S
C170        O176   1.280       .  A
C170       C2008   1.501       .  S
C171       C1876   1.499       .  S
H172        O173   0.966       .  S
O173       Ni181   1.923       .  S
O173       Ni175   1.895       .  S
O173       Ni180   1.904       .  S
O174       Ni175   1.908       .  S
Ni175       O179   1.880       .  S
Ni175       O177   1.911       .  S
O176       Ni181   1.962       .  S
C178        O179   1.257       .  A
C178       C1885   1.453       .  S
O183       Ni189   1.927       .  S
O183        C204   1.271       .  A
O184       Ni207   1.917       .  S
O184        C193   1.279       .  A
O185       Ni189   1.887       .  S
O185       Ni207   1.879       .  S
O185       Ni201   1.891       .  S
O185        H208   0.967       .  S
C186        O203   1.266       .  A
C186        O195   1.278       .  A
C186       C1801   1.498       .  S
O187       Ni206   1.932       .  S
O187        C193   1.276       .  A
O188       Ni206   1.925       .  S
O188        C190   1.272       .  A
Ni189       O192   1.926       .  S
Ni189       O194   1.906       .  S
C190        O200   1.275       .  A
C190       C1828   1.503       .  S
O191       Ni207   1.947       .  S
O191        C197   1.292       .  A
O192        C197   1.278       .  A
C193       C1789   1.493       .  S
O194        C196   1.268       .  A
O195       Ni206   1.951       .  S
C196        O202   1.279       .  A
C196       C1813   1.504   1_455  S
C197       C1840   1.504   1_455  S
H198        O199   0.966       .  S
O199       Ni207   1.938       .  S
O199       Ni201   1.899       .  S
O199       Ni206   1.904       .  S
O200       Ni201   1.936       .  S
Ni201       O205   1.878       .  S
Ni201       O203   1.897       .  S
O202       Ni207   1.958       .  S
C204        O205   1.260       .  A
C204       C1888   1.457       .  S
O209       Ni215   1.925       .  S
O209        C230   1.270       .  A
O210       Ni233   1.916       .  S
O210        C219   1.274       .  A
O211       Ni215   1.897       .  S
O211       Ni233   1.888       .  S
O211       Ni227   1.898       .  S
O211        H234   0.966       .  S
C212        O229   1.268       .  A
C212        O221   1.280       .  A
C212       C1753   1.491       .  S
O213       Ni232   1.931       .  S
O213        C219   1.277       .  A
O214       Ni232   1.925       .  S
O214        C216   1.271       .  A
Ni215       O218   1.920       .  S
Ni215       O220   1.903       .  S
C216        O226   1.274       .  A
C216       C1765   1.501       .  S
O217       Ni233   1.937       .  S
O217        C223   1.286       .  A
O218        C223   1.279       .  A
C219       C1741   1.496       .  S
O220        C222   1.267       .  A
O221       Ni232   1.948       .  S
C222        O228   1.276       .  A
C222       C2044   1.492       .  S
C223       C1873   1.488       .  S
H224        O225   0.966       .  S
O225       Ni233   1.925       .  S
O225       Ni227   1.894       .  S
O225       Ni232   1.904       .  S
O226       Ni227   1.939       .  S
Ni227       O231   1.880       .  S
Ni227       O229   1.901       .  S
O228       Ni233   1.941       .  S
C230        O231   1.261       .  A
C230       C1777   1.461       .  S
O235       Ni241   1.932   1_556  S
O235        C256   1.272       .  A
O236       Ni259   1.914       .  S
O236        C245   1.277       .  A
O237       Ni241   1.889       .  S
O237       Ni259   1.881       .  S
O237       Ni253   1.894       .  S
O237        H260   0.968       .  S
C238        O255   1.270       .  A
C238        O247   1.279       .  A
C238       C1696   1.498       .  S
O239       Ni258   1.934       .  S
O239        C245   1.276       .  A
O240       Ni258   1.922       .  S
O240        C242   1.271       .  A
Ni241       O244   1.934       .  S
Ni241       O246   1.904   1_554  S
C242        O252   1.271       .  A
C242       C1720   1.481       .  S
O243       Ni259   1.942       .  S
O243        C249   1.288       .  A
O244        C249   1.282       .  A
C245       C1792   1.493       .  S
O246        C248   1.266   1_556  A
O247       Ni258   1.944       .  S
C248        O254   1.278       .  A
C248       C1708   1.496   1_655  S
C249       C1729   1.507   1_655  S
H250        O251   0.966       .  S
O251       Ni259   1.936       .  S
O251       Ni253   1.895       .  S
O251       Ni258   1.905       .  S
O252       Ni253   1.919       .  S
Ni253       O257   1.876       .  S
Ni253       O255   1.911       .  S
O254       Ni259   1.949       .  S
C256        O257   1.259   1_556  A
C256       C1780   1.450       .  S
O261       Ni267   1.925       .  S
O261        C282   1.271       .  A
O262       Ni285   1.906       .  S
O262        C271   1.272       .  A
O263       Ni267   1.897       .  S
O263       Ni285   1.883       .  S
O263       Ni279   1.903       .  S
O263        H286   0.966       .  S
C264        O281   1.271       .  A
C264        O273   1.280       .  A
C264       C1924   1.495       .  S
O265       Ni284   1.938       .  S
O265        C271   1.279       .  A
O266       Ni284   1.920       .  S
O266        C268   1.270       .  A
Ni267       O270   1.931       .  S
Ni267       O272   1.908       .  S
C268        O278   1.272       .  A
C268       C2092   1.489       .  S
O269       Ni285   1.939       .  S
O269        C275   1.286       .  A
O270        C275   1.281       .  A
C271       C1849   1.497   1_554  S
O272        C274   1.267       .  A
O273       Ni284   1.944       .  S
C274        O280   1.275       .  A
C274       C1672   1.493       .  S
C275       C1732   1.499       .  S
H276        O277   0.966       .  S
O277       Ni285   1.930       .  S
O277       Ni279   1.895       .  S
O277       Ni284   1.905       .  S
O278       Ni279   1.924       .  S
Ni279       O283   1.882       .  S
Ni279       O281   1.911       .  S
O280       Ni285   1.937       .  S
C282        O283   1.260       .  A
C282       C1684   1.455       .  S
O287       Ni293   1.920       .  S
O287        C308   1.268       .  A
O288       Ni311   1.920       .  S
O288        C297   1.277       .  A
O289       Ni293   1.897       .  S
O289       Ni311   1.888       .  S
O289       Ni305   1.907       .  S
O289        H312   0.966       .  S
C290        O307   1.271       .  A
C290        O299   1.279       .  A
C290       C2188   1.507       .  S
O291       Ni310   1.928       .  S
O291        C297   1.275       .  A
O292       Ni310   1.922       .  S
O292        C294   1.270       .  A
Ni293       O296   1.918       .  S
Ni293       O298   1.901       .  S
C294        O304   1.272       .  A
C294       C2029   1.491       .  S
O295       Ni311   1.951       .  S
O295        C301   1.290       .  A
O296        C301   1.278       .  A
C297       C1744   1.481       .  S
O298        C300   1.268       .  A
O299       Ni310   1.949       .  S
C300        O306   1.279       .  A
C300       C1657   1.508       .  S
C301       C1837   1.491       .  S
H302        O303   0.966       .  S
O303       Ni311   1.936       .  S
O303       Ni305   1.896       .  S
O303       Ni310   1.912       .  S
O304       Ni305   1.931       .  S
Ni305       O309   1.880       .  S
Ni305       O307   1.908       .  S
O306       Ni311   1.953       .  S
C308        O309   1.257       .  A
C308       C1681   1.450       .  S
O313       Ni319   1.929       .  S
O313        C334   1.276       .  A
O314       Ni337   1.880       .  S
O314        C323   1.258       .  A
O315       Ni319   1.904       .  S
O315       Ni337   1.889       .  S
O315       Ni331   1.934       .  S
O315        H338   0.966       .  S
C316        O333   1.292       .  A
C316        O325   1.276       .  A
C316       C1645   1.502       .  S
O317       Ni336   1.920       .  S
O317        C323   1.269       .  A
O318       Ni336   1.897       .  S
O318        C320   1.268       .  A
Ni319       O322   1.942       .  S
Ni319       O324   1.914       .  S
C320        O330   1.278       .  A
C320       C1624   1.500       .  S
O321       Ni337   1.915       .  S
O321        C327   1.273       .  A
O322        C327   1.280       .  A
C323       C1636   1.459       .  S
O324        C326   1.268       .  A
O325       Ni336   1.914       .  S
C326        O332   1.270       .  A
C326       C1717   1.480       .  S
C327       C1660   1.489       .  S
H328        O329   0.966       .  S
O329       Ni337   1.907       .  S
O329       Ni331   1.890       .  S
O329       Ni336   1.889       .  S
O330       Ni331   1.946       .  S
Ni331       O335   1.923       .  S
Ni331       O333   1.957       .  S
O332       Ni337   1.924       .  S
C334        O335   1.279       .  A
C334       C1609   1.499       .  S
O339       Ni345   1.936       .  S
O339        C360   1.279       .  A
O340       Ni363   1.878       .  S
O340        C349   1.258       .  A
O341       Ni345   1.905       .  S
O341       Ni363   1.893       .  S
O341       Ni357   1.936       .  S
O341        H364   0.966       .  S
C342        O359   1.292       .  A
C342        O351   1.276       .  A
C342       C1597   1.502       .  S
O343       Ni362   1.920       .  S
O343        C349   1.269       .  A
O344       Ni362   1.911       .  S
O344        C346   1.270       .  A
Ni345       O348   1.955       .  S
Ni345       O350   1.929       .  S
C346        O356   1.277       .  A
C346       C1585   1.502       .  S
O347       Ni363   1.913       .  S
O347        C353   1.272       .  A
O348        C353   1.281       .  A
C349       C1633   1.451       .  S
O350        C352   1.272       .  A
O351       Ni362   1.914       .  S
C352        O358   1.273       .  A
C352       C1768   1.499       .  S
C353       C1816   1.511       .  S
H354        O355   0.967       .  S
O355       Ni363   1.905       .  S
O355       Ni357   1.885       .  S
O355       Ni362   1.893       .  S
O356       Ni357   1.947       .  S
Ni357       O361   1.910       .  S
Ni357       O359   1.955       .  S
O358       Ni363   1.935       .  S
C360        O361   1.274       .  A
C360       C1573   1.496       .  S
O365       Ni371   1.930       .  S
O365        C386   1.274       .  A
O366       Ni389   1.890       .  S
O366        C375   1.262   1_556  A
O367       Ni371   1.909       .  S
O367       Ni389   1.901       .  S
O367       Ni383   1.934       .  S
O367        H390   0.966       .  S
C368        O385   1.290       .  A
C368        O377   1.280       .  A
C368       C1537   1.496       .  S
O369       Ni388   1.920       .  S
O369        C375   1.268       .  A
O370       Ni388   1.898       .  S
O370        C372   1.265   1_554  A
Ni371       O374   1.939       .  S
Ni371       O376   1.920       .  S
C372        O382   1.276       .  A
C372       C1693   1.495   1_556  S
O373       Ni389   1.914       .  S
O373        C379   1.271       .  A
O374        C379   1.278       .  A
C375       C1549   1.458       .  S
O376        C378   1.270       .  A
O377       Ni388   1.927   1_556  S
C378        O384   1.272       .  A
C378       C1564   1.488       .  S
C379       C1528   1.488       .  S
H380        O381   0.966       .  S
O381       Ni389   1.895       .  S
O381       Ni383   1.882       .  S
O381       Ni388   1.888   1_556  S
O382       Ni383   1.950       .  S
Ni383       O387   1.914       .  S
Ni383       O385   1.944       .  S
O384       Ni389   1.929       .  S
C386        O387   1.275       .  A
C386       C1576   1.476       .  S
O391       Ni397   1.938       .  S
O391        C412   1.277       .  A
O392       Ni415   1.884       .  S
O392        C401   1.262       .  A
O393       Ni397   1.902       .  S
O393       Ni415   1.895       .  S
O393       Ni409   1.934       .  S
O393        H416   0.966       .  S
C394        O411   1.290       .  A
C394        O403   1.276       .  A
C394       C1648   1.500       .  S
O395       Ni414   1.923       .  S
O395        C401   1.268       .  A
O396       Ni414   1.900       .  S
O396        C398   1.267       .  A
Ni397       O400   1.949       .  S
Ni397       O402   1.917       .  S
C398        O408   1.274       .  A
C398       C1489   1.484       .  S
O399       Ni415   1.913       .  S
O399        C405   1.270       .  A
O400        C405   1.281       .  A
C401       C1552   1.459       .  S
O402        C404   1.271       .  A
O403       Ni414   1.912       .  S
C404        O410   1.273       .  A
C404       C1516   1.488       .  S
C405       C1504   1.499       .  S
H406        O407   0.964       .  S
O407       Ni415   1.901       .  S
O407       Ni409   1.893       .  S
O407       Ni414   1.895       .  S
O408       Ni409   1.932       .  S
Ni409       O413   1.918       .  S
Ni409       O411   1.953       .  S
O410       Ni415   1.929       .  S
C412        O413   1.276       .  A
C412       C1480   1.483       .  S
O417       Ni423   1.931       .  S
O417        C438   1.277       .  A
O418       Ni441   1.886       .  S
O418        C427   1.259       .  A
O419       Ni423   1.897       .  S
O419       Ni441   1.890       .  S
O419       Ni435   1.930       .  S
O419        H442   0.966       .  S
C420        O437   1.291       .  A
C420        O429   1.278       .  A
C420       C1600   1.502       .  S
O421       Ni440   1.917       .  S
O421        C427   1.267       .  A
O422       Ni440   1.904       .  S
O422        C424   1.268       .  A
Ni423       O426   1.949       .  S
Ni423       O428   1.919       .  S
C424        O434   1.275       .  A
C424       C1441   1.497       .  S
O425       Ni441   1.902       .  S
O425        C431   1.269       .  A
O426        C431   1.281       .  A
C427       C1465   1.455       .  S
O428        C430   1.270       .  A
O429       Ni440   1.919       .  S
C430        O436   1.271       .  A
C430       C1453   1.482       .  S
C431       C1429   1.492       .  S
H432        O433   0.966       .  S
O433       Ni441   1.907       .  S
O433       Ni435   1.890       .  S
O433       Ni440   1.893       .  S
O434       Ni435   1.940       .  S
Ni435       O439   1.925       .  S
Ni435       O437   1.948       .  S
O436       Ni441   1.925       .  S
C438        O439   1.278       .  A
C438       C1477   1.499       .  S
O443       Ni449   1.932   1_554  S
O443        C464   1.278       .  A
O444       Ni467   1.877       .  S
O444        C453   1.259       .  A
O445       Ni449   1.903       .  S
O445       Ni467   1.892       .  S
O445       Ni461   1.932       .  S
O445        H468   0.966       .  S
C446        O463   1.289       .  A
C446        O455   1.279       .  A
C446       C1540   1.489       .  S
O447       Ni466   1.924       .  S
O447        C453   1.270       .  A
O448       Ni466   1.902       .  S
O448        C450   1.266       .  A
Ni449       O452   1.946       .  S
Ni449       O454   1.927       .  S
C450        O460   1.277       .  A
C450       C1756   1.493       .  S
O451       Ni467   1.914       .  S
O451        C457   1.271       .  A
O452        C457   1.280       .  A
C453       C1468   1.452       .  S
O454        C456   1.272       .  A
O455       Ni466   1.925       .  S
C456        O462   1.272       .  A
C456       C1417   1.495       .  S
C457       C1405   1.498       .  S
H458        O459   0.966       .  S
O459       Ni467   1.904       .  S
O459       Ni461   1.886       .  S
O459       Ni466   1.898       .  S
O460       Ni461   1.944       .  S
Ni461       O465   1.916       .  S
Ni461       O463   1.947       .  S
O462       Ni467   1.932       .  S
C464        O465   1.276   1_554  A
C464       C1612   1.482       .  S
O469       Ni475   1.921       .  S
O469        C490   1.268       .  A
O470       Ni493   1.906       .  S
O470        C479   1.271       .  A
O471       Ni475   1.897       .  S
O471       Ni493   1.884       .  S
O471       Ni487   1.902       .  S
O471        H494   0.966       .  S
C472        O489   1.268       .  A
C472        O481   1.279       .  A
C472       C1621   1.483       .  S
O473       Ni492   1.925       .  S
O473        C479   1.273       .  A
O474       Ni492   1.915       .  S
O474        C476   1.268       .  A
Ni475       O478   1.920       .  S
Ni475       O480   1.907       .  S
C476        O486   1.271       .  A
C476       C1456   1.484       .  S
O477       Ni493   1.938       .  S
O477        C483   1.285       .  A
O478        C483   1.280       .  A
C479       C1357   1.464       .  S
O480        C482   1.269       .  A
O481       Ni492   1.942       .  S
C482        O488   1.273       .  A
C482       C1369   1.503       .  S
C483       C1396   1.500       .  S
H484        O485   0.966       .  S
O485       Ni493   1.930       .  S
O485       Ni487   1.896       .  S
O485       Ni492   1.910       .  S
O486       Ni487   1.927       .  S
Ni487       O491   1.881       .  S
Ni487       O489   1.897       .  S
O488       Ni493   1.938       .  S
C490        O491   1.257       .  A
C490       C1384   1.451       .  S
O495       Ni501   1.932       .  S
O495        C516   1.274       .  A
O496       Ni519   1.920       .  S
O496        C505   1.277   1_554  A
O497       Ni501   1.891       .  S
O497       Ni519   1.889       .  S
O497       Ni513   1.894       .  S
O497        H520   0.967       .  S
C498        O515   1.272       .  A
C498        O507   1.278       .  A
C498       C1492   1.481       .  S
O499       Ni518   1.930   1_556  S
O499        C505   1.277       .  A
O500       Ni518   1.931       .  S
O500        C502   1.272       .  A
Ni501       O504   1.925       .  S
Ni501       O506   1.908       .  S
C502        O512   1.268       .  A
C502       C1420   1.494       .  S
O503       Ni519   1.927       .  S
O503        C509   1.285       .  A
O504        C509   1.280       .  A
C505       C1333   1.499       .  S
O506        C508   1.270       .  A
O507       Ni518   1.933       .  S
C508        O514   1.276       .  A
C508       C1912   1.502       .  S
C509       C1348   1.491       .  S
H510        O511   0.966       .  S
O511       Ni519   1.916       .  S
O511       Ni513   1.888       .  S
O511       Ni518   1.899       .  S
O512       Ni513   1.924       .  S
Ni513       O517   1.875       .  S
Ni513       O515   1.908       .  S
O514       Ni519   1.944       .  S
C516        O517   1.257       .  A
C516       C1381   1.461       .  S
O521       Ni527   1.919       .  S
O521        C542   1.269       .  A
O522       Ni545   1.917       .  S
O522        C531   1.277       .  A
O523       Ni527   1.893       .  S
O523       Ni545   1.884       .  S
O523       Ni539   1.896       .  S
O523        H546   0.967       .  S
C524        O541   1.266       .  A
C524        O533   1.280       .  A
C524       C2128   1.509       .  S
O525       Ni544   1.941       .  S
O525        C531   1.278       .  A
O526       Ni544   1.919       .  S
O526        C528   1.271       .  A
Ni527       O530   1.917       .  S
Ni527       O532   1.900       .  S
C528        O538   1.271       .  A
C528       C1936   1.490       .  S
O529       Ni545   1.944       .  S
O529        C535   1.287       .  A
O530        C535   1.279       .  A
C531       C1297   1.498       .  S
O532        C534   1.266       .  A
O533       Ni544   1.959       .  S
C534        O540   1.279       .  A
C534       C1309   1.497       .  S
C535       C1393   1.504       .  S
H536        O537   0.966       .  S
O537       Ni545   1.942       .  S
O537       Ni539   1.906       .  S
O537       Ni544   1.916       .  S
O538       Ni539   1.922       .  S
Ni539       O543   1.881       .  S
Ni539       O541   1.900       .  S
O540       Ni545   1.952       .  S
C542        O543   1.257       .  A
C542       C1324   1.457       .  S
O547       Ni553   1.924       .  S
O547        C568   1.269       .  A
O548       Ni571   1.923       .  S
O548        C557   1.278       .  A
O549       Ni553   1.895       .  S
O549       Ni571   1.889       .  S
O549       Ni565   1.900       .  S
O549        H572   0.966       .  S
C550        O567   1.271       .  A
C550        O559   1.277       .  A
C550       C2017   1.494       .  S
O551       Ni570   1.924       .  S
O551        C557   1.275       .  A
O552       Ni570   1.925       .  S
O552        C554   1.271       .  A
Ni553       O556   1.922       .  S
Ni553       O558   1.901       .  S
C554        O564   1.270       .  A
C554       C1984   1.490       .  S
O555       Ni571   1.945       .  S
O555        C561   1.288       .  A
O556        C561   1.280       .  A
C557       C1336   1.490       .  S
O558        C560   1.266       .  A
O559       Ni570   1.939       .  S
C560        O566   1.277       .  A
C560       C1432   1.493       .  S
C561       C1288   1.506       .  S
H562        O563   0.966       .  S
O563       Ni571   1.931       .  S
O563       Ni565   1.893       .  S
O563       Ni570   1.900       .  S
O564       Ni565   1.925       .  S
Ni565       O569   1.882       .  S
Ni565       O567   1.908       .  S
O566       Ni571   1.943       .  S
C568        O569   1.258       .  A
C568       C1321   1.452       .  S
O573       Ni579   1.923   1_556  S
O573        C594   1.269       .  A
O574       Ni597   1.922       .  S
O574        C583   1.277       .  A
O575       Ni579   1.893       .  S
O575       Ni597   1.888       .  S
O575       Ni591   1.899       .  S
O575        H598   0.966       .  S
C576        O593   1.270       .  A
C576        O585   1.276       .  A
C576       C1249   1.482       .  S
O577       Ni596   1.928       .  S
O577        C583   1.273       .  A
O578       Ni596   1.920       .  S
O578        C580   1.270       .  A
Ni579       O582   1.921       .  S
Ni579       O584   1.902   1_554  S
C580        O590   1.273       .  A
C580       C1273   1.488       .  S
O581       Ni597   1.936       .  S
O581        C587   1.285       .  A
O582        C587   1.280       .  A
C583       C1300   1.497       .  S
O584        C586   1.267   1_556  A
O585       Ni596   1.933       .  S
C586        O592   1.276       .  A
C586       C1948   1.488       .  S
C587       C1345   1.501       .  S
H588        O589   0.966       .  S
O589       Ni597   1.932       .  S
O589       Ni591   1.903       .  S
O589       Ni596   1.909       .  S
O590       Ni591   1.930       .  S
Ni591       O595   1.890       .  S
Ni591       O593   1.913       .  S
O592       Ni597   1.943       .  S
C594        O595   1.261   1_556  A
C594       C1261   1.458       .  S
O599       Ni605   1.934       .  S
O599        C620   1.274       .  A
O600       Ni623   1.914       .  S
O600        C609   1.276       .  A
O601       Ni605   1.892       .  S
O601       Ni623   1.892       .  S
O601       Ni617   1.902       .  S
O601        H624   0.966       .  S
C602        O619   1.274       .  A
C602        O611   1.276       .  A
C602       C1225   1.483       .  S
O603       Ni622   1.918       .  S
O603        C609   1.270       .  A
O604       Ni622   1.921       .  S
O604        C606   1.270       .  A
Ni605       O608   1.927       .  S
Ni605       O610   1.904       .  S
C606        O616   1.266       .  A
C606       C1240   1.488       .  S
O607       Ni623   1.939       .  S
O607        C613   1.285       .  A
O608        C613   1.279       .  A
C609       C1360   1.479       .  S
O610        C612   1.269       .  A
O611       Ni622   1.928       .  S
C612        O618   1.280       .  A
C612       C1408   1.496       .  S
C613       C1285   1.499       .  S
H614        O615   0.966       .  S
O615       Ni623   1.923       .  S
O615       Ni617   1.891       .  S
O615       Ni622   1.909       .  S
O616       Ni617   1.921       .  S
Ni617       O621   1.877       .  S
Ni617       O619   1.917       .  S
O618       Ni623   1.952       .  S
C620        O621   1.257       .  A
C620       C1264   1.464       .  S
O625       Ni631   1.929       .  S
O625        C646   1.271       .  A
O626       Ni649   1.911       .  S
O626        C635   1.275   1_554  A
O627       Ni631   1.891       .  S
O627       Ni649   1.885       .  S
O627       Ni643   1.891       .  S
O627        H650   0.967       .  S
C628        O645   1.268       .  A
C628        O637   1.279       .  A
C628       C1180   1.491       .  S
O629       Ni648   1.936   1_556  S
O629        C635   1.277       .  A
O630       Ni648   1.923       .  S
O630        C632   1.272       .  A
Ni631       O634   1.920       .  S
Ni631       O636   1.900       .  S
C632        O642   1.271       .  A
C632       C1216   1.492       .  S
O633       Ni649   1.943       .  S
O633        C639   1.287       .  A
O634        C639   1.276       .  A
C635       C1168   1.494       .  S
O636        C638   1.266       .  A
O637       Ni648   1.946       .  S
C638        O644   1.280       .  A
C638       C1501   1.501       .  S
C639       C1201   1.498       .  S
H640        O641   0.966       .  S
O641       Ni649   1.935       .  S
O641       Ni643   1.901       .  S
O641       Ni648   1.912       .  S
O642       Ni643   1.923       .  S
Ni643       O647   1.883       .  S
Ni643       O645   1.905       .  S
O644       Ni649   1.957       .  S
C646        O647   1.261       .  A
C646       C1189   1.462       .  S
O651       Ni657   1.924       .  S
O651        C672   1.268       .  A
O652       Ni675   1.921       .  S
O652        C661   1.276       .  A
O653       Ni657   1.892       .  S
O653       Ni675   1.894       .  S
O653       Ni669   1.898       .  S
O653        H676   0.967       .  S
C654        O671   1.272       .  A
C654        O663   1.279       .  A
C654       C1129   1.482       .  S
O655       Ni674   1.931       .  S
O655        C661   1.277       .  A
O656       Ni674   1.917       .  S
O656        C658   1.269       .  A
Ni657       O660   1.915       .  S
Ni657       O662   1.902       .  S
C658        O668   1.269       .  A
C658       C1144   1.483       .  S
O659       Ni675   1.939       .  S
O659        C665   1.288       .  A
O660        C665   1.276       .  A
C661       C1117   1.500       .  S
O662        C664   1.268       .  A
O663       Ni674   1.940       .  S
C664        O670   1.274       .  A
C664       C2173   1.498       .  S
C665       C1153   1.498       .  S
H666        O667   0.966       .  S
O667       Ni675   1.926       .  S
O667       Ni669   1.894       .  S
O667       Ni674   1.902       .  S
O668       Ni669   1.922       .  S
Ni669       O673   1.888       .  S
Ni669       O671   1.908       .  S
O670       Ni675   1.938       .  S
C672        O673   1.260       .  A
C672       C1192   1.458       .  S
O677       Ni683   1.928   1_556  S
O677        C698   1.272       .  A
O678       Ni701   1.924       .  S
O678        C687   1.278       .  A
O679       Ni683   1.891       .  S
O679       Ni701   1.888       .  S
O679       Ni695   1.902       .  S
O679        H702   0.966       .  S
C680        O697   1.274       .  A
C680        O689   1.280       .  A
C680       C1957   1.499       .  S
O681       Ni700   1.927       .  S
O681        C687   1.273       .  A
O682       Ni700   1.926       .  S
O682        C684   1.270       .  A
Ni683       O686   1.931       .  S
Ni683       O688   1.898   1_554  S
C684        O694   1.270       .  A
C684       C2224   1.498       .  S
O685       Ni701   1.927       .  S
O685        C691   1.286       .  A
O686        C691   1.280       .  A
C687       C1096   1.493       .  S
O688        C690   1.266   1_556  A
O689       Ni700   1.943       .  S
C690        O696   1.280       .  A
C690       C1525   1.499   1_544  S
C691       C1204   1.485   1_545  S
H692        O693   0.966       .  S
O693       Ni701   1.922       .  S
O693       Ni695   1.887       .  S
O693       Ni700   1.897       .  S
O694       Ni695   1.928       .  S
Ni695       O699   1.881       .  S
Ni695       O697   1.910       .  S
O696       Ni701   1.951       .  S
C698        O699   1.260   1_556  A
C698       C1105   1.459       .  S
O703       Ni709   1.928       .  S
O703        C724   1.271       .  A
O704       Ni727   1.911       .  S
O704        C713   1.274       .  A
O705       Ni709   1.897       .  S
O705       Ni727   1.883       .  S
O705       Ni721   1.902       .  S
O705        H728   0.966       .  S
C706        O723   1.270       .  A
C706        O715   1.278       .  A
C706       C2056   1.493       .  S
O707       Ni726   1.935       .  S
O707        C713   1.276       .  A
O708       Ni726   1.921       .  S
O708        C710   1.270       .  A
Ni709       O712   1.931       .  S
Ni709       O714   1.903       .  S
C710        O720   1.270       .  A
C710       C2140   1.493       .  S
O711       Ni727   1.932       .  S
O711        C717   1.285       .  A
O712        C717   1.280       .  A
C713       C1120   1.483       .  S
O714        C716   1.267       .  A
O715       Ni726   1.945       .  S
C716        O722   1.278       .  A
C716       C1069   1.493       .  S
C717       C1081   1.486       .  S
H718        O719   0.966       .  S
O719       Ni727   1.931       .  S
O719       Ni721   1.897       .  S
O719       Ni726   1.913       .  S
O720       Ni721   1.926       .  S
Ni721       O725   1.877       .  S
Ni721       O723   1.906       .  S
O722       Ni727   1.948       .  S
C724        O725   1.257       .  A
C724       C1108   1.451       .  S
O729       Ni735   1.926       .  S
O729        C750   1.271       .  A
O730       Ni753   1.917       .  S
O730        C739   1.277       .  A
O731       Ni735   1.889       .  S
O731       Ni753   1.888       .  S
O731       Ni747   1.899       .  S
O731        H754   0.966       .  S
C732        O749   1.272       .  A
C732        O741   1.280       .  A
C732       C1588   1.494       .  S
O733       Ni752   1.935       .  S
O733        C739   1.276       .  A
O734       Ni752   1.920       .  S
O734        C736   1.270       .  A
Ni735       O738   1.919       .  S
Ni735       O740   1.908       .  S
C736        O746   1.270       .  A
C736       C1513   1.488       .  S
O737       Ni753   1.939       .  S
O737        C743   1.288   1_565  A
O738        C743   1.277   1_565  A
C739       C1093   1.479       .  S
O740        C742   1.270   1_565  A
O741       Ni752   1.944       .  S
C742        O748   1.277   1_545  A
C742       C2113   1.503       .  S
C743       C1156   1.496       .  S
H744        O745   0.966       .  S
O745       Ni753   1.928       .  S
O745       Ni747   1.891       .  S
O745       Ni752   1.903       .  S
O746       Ni747   1.926       .  S
Ni747       O751   1.878       .  S
Ni747       O749   1.911       .  S
O748       Ni753   1.948       .  S
C750        O751   1.258       .  A
C750       C1057   1.456       .  S
O755       Ni761   1.922       .  S
O755        C776   1.269       .  A
O756       Ni779   1.910       .  S
O756        C765   1.275       .  A
O757       Ni761   1.892       .  S
O757       Ni779   1.883       .  S
O757       Ni773   1.897       .  S
O757        H780   0.967       .  S
C758        O775   1.268       .  A
C758        O767   1.278       .  A
C758       C1444   1.494       .  S
O759       Ni778   1.936       .  S
O759        C765   1.277       .  A
O760       Ni778   1.923       .  S
O760        C762   1.271       .  A
Ni761       O764   1.925       .  S
Ni761       O766   1.898       .  S
C762        O772   1.271       .  A
C762       C1561   1.486       .  S
O763       Ni779   1.941       .  S
O763        C769   1.287       .  A
O764        C769   1.278       .  A
C765       C1165   1.489       .  S
O766        C768   1.267       .  A
O767       Ni778   1.945       .  S
C768        O774   1.277       .  A
C768       C1045   1.502       .  S
C769       C1084   1.497       .  S
H770        O771   0.966       .  S
O771       Ni779   1.937       .  S
O771       Ni773   1.901       .  S
O771       Ni778   1.915       .  S
O772       Ni773   1.923       .  S
Ni773       O777   1.886       .  S
Ni773       O775   1.900       .  S
O774       Ni779   1.953       .  S
C776        O777   1.259       .  A
C776       C1060   1.455       .  S
O781       Ni787   1.929       .  S
O781        C802   1.274       .  A
O782       Ni805   1.878       .  S
O782        C791   1.258   1_556  A
O783       Ni787   1.902       .  S
O783       Ni805   1.890       .  S
O783       Ni799   1.929       .  S
O783        H806   0.966       .  S
C784        O801   1.288   1_545  A
C784        O793   1.281   1_545  A
C784       C1021   1.494       .  S
O785       Ni804   1.924       .  S
O785        C791   1.269       .  A
O786       Ni804   1.895       .  S
O786        C788   1.265   1_564  A
Ni787       O790   1.945       .  S
Ni787       O792   1.933       .  S
C788        O798   1.277   1_545  A
C788       C1252   1.500   1_556  S
O789       Ni805   1.912       .  S
O789        C795   1.271       .  A
O790        C795   1.280       .  A
C791       C1033   1.453       .  S
O792        C794   1.271       .  A
O793       Ni804   1.925   1_556  S
C794        O800   1.267       .  A
C794       C1900   1.496       .  S
C795       C1705   1.494       .  S
H796        O797   0.967       .  S
O797       Ni805   1.894       .  S
O797       Ni799   1.888       .  S
O797       Ni804   1.882   1_556  S
O798       Ni799   1.955       .  S
Ni799       O803   1.918       .  S
Ni799       O801   1.938       .  S
O800       Ni805   1.915       .  S
C802        O803   1.278       .  A
C802       C1009   1.490       .  S
O807       Ni813   1.928       .  S
O807        C828   1.277       .  A
O808       Ni831   1.876       .  S
O808        C817   1.257       .  A
O809       Ni813   1.900       .  S
O809       Ni831   1.891       .  S
O809       Ni825   1.933       .  S
O809        H832   0.966       .  S
C810        O827   1.289       .  A
C810        O819   1.279       .  A
C810        C997   1.501       .  S
O811       Ni830   1.917       .  S
O811        C817   1.268       .  A
O812       Ni830   1.897       .  S
O812        C814   1.265       .  A
Ni813       O816   1.944       .  S
Ni813       O818   1.927       .  S
C814        O824   1.278       .  A
C814       C1177   1.496       .  S
O815       Ni831   1.902       .  S
O815        C821   1.267       .  A
O816        C821   1.279       .  A
C817       C1036   1.450       .  S
O818        C820   1.271       .  A
O819       Ni830   1.914       .  S
C820        O826   1.272       .  A
C820       C1825   1.500       .  S
C821       C1669   1.490       .  S
H822        O823   0.966       .  S
O823       Ni831   1.899       .  S
O823       Ni825   1.885       .  S
O823       Ni830   1.891       .  S
O824       Ni825   1.947       .  S
Ni825       O829   1.920       .  S
Ni825       O827   1.947       .  S
O826       Ni831   1.926       .  S
C828        O829   1.278       .  A
C828        C985   1.494       .  S
O833       Ni839   1.932       .  S
O833        C854   1.277       .  A
O834       Ni857   1.888       .  S
O834        C843   1.262       .  A
O835       Ni839   1.904       .  S
O835       Ni857   1.899       .  S
O835       Ni851   1.936       .  S
O835        H858   0.966       .  S
C836        O853   1.290       .  A
C836        O845   1.282       .  A
C836        C964   1.513       .  S
O837       Ni856   1.928       .  S
O837        C843   1.270       .  A
O838       Ni856   1.905       .  S
O838        C840   1.266       .  A
Ni839       O842   1.941       .  S
Ni839       O844   1.921       .  S
C840        O850   1.276       .  A
C840       C1861   1.492       .  S
O841       Ni857   1.911       .  S
O841        C847   1.271       .  A
O842        C847   1.278       .  A
C843        C973   1.458       .  S
O844        C846   1.271       .  A
O845       Ni856   1.933       .  S
C846        O852   1.273       .  A
C846       C1141   1.487       .  S
C847       C1048   1.494       .  S
H848        O849   0.967       .  S
O849       Ni857   1.895       .  S
O849       Ni851   1.883       .  S
O849       Ni856   1.891       .  S
O850       Ni851   1.948       .  S
Ni851       O855   1.918       .  S
Ni851       O853   1.947       .  S
O852       Ni857   1.926       .  S
C854        O855   1.277       .  A
C854        C988   1.494       .  S
O859       Ni865   1.941   1_554  S
O859        C880   1.277       .  A
O860       Ni883   1.886       .  S
O860        C869   1.262       .  A
O861       Ni865   1.902       .  S
O861       Ni883   1.895       .  S
O861       Ni877   1.923       .  S
O861        H884   0.966       .  S
C862        O879   1.286       .  A
C862        O871   1.278       .  A
C862       C1024   1.482       .  S
O863       Ni882   1.928       .  S
O863        C869   1.271       .  A
O864       Ni882   1.900       .  S
O864        C866   1.268       .  A
Ni865       O868   1.946       .  S
Ni865       O870   1.919       .  S
C866        O876   1.275       .  A
C866       C1228   1.499       .  S
O867       Ni883   1.911       .  S
O867        C873   1.271       .  A
O868        C873   1.281       .  A
C869        C976   1.465       .  S
O870        C872   1.271       .  A
O871       Ni882   1.922       .  S
C872        O878   1.271       .  A
C872       C1213   1.488       .  S
C873       C1072   1.498       .  S
H874        O875   0.967       .  S
O875       Ni883   1.895       .  S
O875       Ni877   1.889       .  S
O875       Ni882   1.893       .  S
O876       Ni877   1.945       .  S
Ni877       O881   1.918       .  S
Ni877       O879   1.933       .  S
O878       Ni883   1.926       .  S
C880        O881   1.276   1_554  A
C880        C949   1.482       .  S
O885       Ni891   1.937       .  S
O885        C906   1.277       .  A
O886       Ni909   1.886       .  S
O886        C895   1.259       .  A
O887       Ni891   1.910       .  S
O887       Ni909   1.895       .  S
O887       Ni903   1.936       .  S
O887        H910   0.966       .  S
C888        O905   1.290       .  A
C888        O897   1.280       .  A
C888        C961   1.509   1_545  S
O889       Ni908   1.916       .  S
O889        C895   1.267       .  A
O890       Ni908   1.903       .  S
O890        C892   1.267       .  A
Ni891       O894   1.947       .  S
Ni891       O896   1.923       .  S
C892        O902   1.275       .  A
C892       C1804   1.488   1_545  S
O893       Ni909   1.909       .  S
O893        C899   1.270       .  A
O894        C899   1.280       .  A
C895        C937   1.449       .  S
O896        C898   1.271       .  A
O897       Ni908   1.924       .  S
C898        O904   1.271       .  A
C898       C1237   1.487       .  S
C899       C1312   1.495       .  S
H900        O901   0.966       .  S
O901       Ni909   1.908       .  S
O901       Ni903   1.883       .  S
O901       Ni908   1.894       .  S
O902       Ni903   1.939       .  S
Ni903       O907   1.906       .  S
Ni903       O905   1.954       .  S
O904       Ni909   1.922       .  S
C906        O907   1.273       .  A
C906       C1012   1.471       .  S
O911       Ni917   1.937       .  S
O911        C932   1.276       .  A
O912       Ni935   1.895       .  S
O912        C921   1.261       .  A
O913       Ni917   1.908       .  S
O913       Ni935   1.901       .  S
O913       Ni929   1.931       .  S
O913        H936   0.966       .  S
C914        O931   1.288       .  A
C914        O923   1.275       .  A
C914       C1000   1.481       .  S
O915       Ni934   1.908       .  S
O915        C921   1.265       .  A
O916       Ni934   1.887       .  S
O916        C918   1.263       .  A
Ni917       O920   1.945       .  S
Ni917       O922   1.917       .  S
C918        O928   1.281       .  A
C918       C1132   1.495       .  S
O919       Ni935   1.908       .  S
O919        C925   1.272       .  A
O920        C925   1.280       .  A
C921        C940   1.465       .  S
O922        C924   1.270       .  A
O923       Ni934   1.908       .  S
C924        O930   1.270       .  A
C924       C1276   1.487       .  S
C925       C1372   1.492       .  S
H926        O927   0.965       .  S
O927       Ni935   1.908       .  S
O927       Ni929   1.892       .  S
O927       Ni934   1.894       .  S
O928       Ni929   1.954       .  S
Ni929       O933   1.925       .  S
Ni929       O931   1.947       .  S
O930       Ni935   1.928       .  S
C932        O933   1.279       .  A
C932        C952   1.498       .  S
C937        C938   1.397       .  A
C937        C942   1.407       .  A
C938        C939   1.395       .  A
C938        H947   1.084       .  S
C939        C940   1.416       .  A
C939        S943   1.803       .  S
C940        C941   1.403       .  A
C941        C942   1.389       .  A
C941        H948   1.084       .  S
C942        S944   1.804       .  S
S943        H946   1.408       .  S
S944        H945   1.404       .  S
C949        C950   1.399       .  A
C949        C954   1.415       .  A
C950        C951   1.402       .  A
C950        H959   1.084       .  S
C951        C952   1.423       .  A
C951        S955   1.803       .  S
C952        C953   1.407       .  A
C953        C954   1.406       .  A
C953        H960   1.084       .  S
C954        S956   1.805       .  S
S955        H958   1.407       .  S
S956        H957   1.407       .  S
C961        C962   1.415       .  A
C961        C966   1.414       .  A
C962        C963   1.407       .  A
C962        H971   1.083       .  S
C963        C964   1.416       .  A
C963        S967   1.801       .  S
C964        C965   1.419       .  A
C965        C966   1.408       .  A
C965        H972   1.083       .  S
C966        S968   1.801   1_565  S
S967        H970   1.408       .  S
S968        H969   1.407   1_545  S
C973        C974   1.401   1_565  A
C973        C978   1.406       .  A
C974        C975   1.394       .  A
C974        H983   1.084       .  S
C975        C976   1.412       .  A
C975        S979   1.805       .  S
C976        C977   1.405   1_545  A
C977        C978   1.394       .  A
C977        H984   1.084       .  S
C978        S980   1.804       .  S
S979        H982   1.402       .  S
S980        H981   1.407       .  S
C985        C986   1.411       .  A
C985        C990   1.415       .  A
C986        C987   1.399       .  A
C986        H995   1.083       .  S
C987        C988   1.414       .  A
C987        S991   1.803       .  S
C988        C989   1.412       .  A
C989        C990   1.403       .  A
C989        H996   1.084       .  S
C990        S992   1.803       .  S
S991        H994   1.407       .  S
S992        H993   1.407       .  S
C997        C998   1.416       .  A
C997       C1002   1.415       .  A
C998        C999   1.398   1_565  A
C998       H1007   1.083       .  S
C999       C1000   1.406       .  A
C999       S1003   1.804       .  S
C1000      C1001   1.409       .  A
C1001      C1002   1.410   1_545  A
C1001      H1008   1.083       .  S
C1002      S1004   1.807       .  S
S1003      H1006   1.407       .  S
S1004      H1005   1.407       .  S
C1009      C1010   1.406   1_565  A
C1009      C1014   1.423       .  A
C1010      C1011   1.400       .  A
C1010      H1019   1.081       .  S
C1011      C1012   1.412       .  A
C1011      S1015   1.806       .  S
C1012      C1013   1.397   1_545  A
C1013      C1014   1.398       .  A
C1013      H1020   1.084       .  S
C1014      S1016   1.803       .  S
S1015      H1018   1.406       .  S
S1016      H1017   1.408       .  S
C1021      C1022   1.412       .  A
C1021      C1026   1.413       .  A
C1022      C1023   1.396       .  A
C1022      H1031   1.084       .  S
C1023      C1024   1.409       .  A
C1023      S1027   1.804       .  S
C1024      C1025   1.410       .  A
C1025      C1026   1.406       .  A
C1025      H1032   1.084       .  S
C1026      S1028   1.800       .  S
S1027      H1030   1.407       .  S
S1028      H1029   1.408       .  S
C1033      C1034   1.398       .  A
C1033      C1038   1.410       .  A
C1034      C1035   1.391       .  A
C1034      H1043   1.084       .  S
C1035      C1036   1.413       .  A
C1035      S1039   1.804       .  S
C1036      C1037   1.397       .  A
C1037      C1038   1.387       .  A
C1037      H1044   1.085       .  S
C1038      S1040   1.796   1_554  S
S1039      H1042   1.407       .  S
S1040      H1041   1.405       .  S
C1045      C1046   1.414       .  A
C1045      C1050   1.418       .  A
C1046      C1047   1.403       .  A
C1046      H1055   1.083       .  S
C1047      C1048   1.412       .  A
C1047      S1051   1.799       .  S
C1048      C1049   1.409       .  A
C1049      C1050   1.404       .  A
C1049      H1056   1.084       .  S
C1050      S1052   1.801       .  S
S1051      H1054   1.407       .  S
S1052      H1053   1.408       .  S
C1057      C1058   1.398       .  A
C1057      C1062   1.414       .  A
C1058      C1059   1.391       .  A
C1058      H1067   1.084       .  S
C1059      C1060   1.412       .  A
C1059      S1063   1.802       .  S
C1060      C1061   1.398       .  A
C1061      C1062   1.392       .  A
C1061      H1068   1.084       .  S
C1062      S1064   1.804       .  S
S1063      H1066   1.406       .  S
S1064      H1065   1.407       .  S
C1069      C1070   1.402       .  A
C1069      C1074   1.418       .  A
C1070      C1071   1.405       .  A
C1070      H1079   1.083       .  S
C1071      C1072   1.423       .  A
C1071      S1075   1.808       .  S
C1072      C1073   1.405       .  A
C1073      C1074   1.405       .  A
C1073      H1080   1.083       .  S
C1074      S1076   1.803       .  S
S1075      H1078   1.406       .  S
S1076      H1077   1.408       .  S
C1081      C1082   1.398       .  A
C1081      C1086   1.417       .  A
C1082      C1083   1.399   1_545  A
C1082      H1091   1.084       .  S
C1083      C1084   1.426       .  A
C1083      S1087   1.805       .  S
C1084      C1085   1.406       .  A
C1085      C1086   1.407   1_565  A
C1085      H1092   1.084       .  S
C1086      S1088   1.803       .  S
S1087      H1090   1.408       .  S
S1088      H1089   1.408       .  S
C1093      C1094   1.397   1_565  A
C1093      C1098   1.417       .  A
C1094      C1095   1.398       .  A
C1094      H1103   1.084       .  S
C1095      C1096   1.423       .  A
C1095      S1099   1.804       .  S
C1096      C1097   1.406   1_545  A
C1097      C1098   1.404       .  A
C1097      H1104   1.084       .  S
C1098      S1100   1.805       .  S
S1099      H1102   1.408       .  S
S1100      H1101   1.407       .  S
C1105      C1106   1.399       .  A
C1105      C1110   1.415       .  A
C1106      C1107   1.389       .  A
C1106      H1115   1.084       .  S
C1107      C1108   1.410       .  A
C1107      S1111   1.804       .  S
C1108      C1109   1.397       .  A
C1109      C1110   1.393       .  A
C1109      H1116   1.084       .  S
C1110      S1112   1.803   1_556  S
S1111      H1114   1.406       .  S
S1112      H1113   1.407       .  S
C1117      C1118   1.413       .  A
C1117      C1122   1.419       .  A
C1118      C1119   1.398       .  A
C1118      H1127   1.083       .  S
C1119      C1120   1.408       .  A
C1119      S1123   1.804       .  S
C1120      C1121   1.407       .  A
C1121      C1122   1.408       .  A
C1121      H1128   1.083       .  S
C1122      S1124   1.809       .  S
S1123      H1126   1.407       .  S
S1124      H1125   1.407       .  S
C1129      C1130   1.399       .  A
C1129      C1134   1.414       .  A
C1130      C1131   1.406       .  A
C1130      H1139   1.083       .  S
C1131      C1132   1.427       .  A
C1131      S1135   1.811       .  S
C1132      C1133   1.403       .  A
C1133      C1134   1.401       .  A
C1133      H1140   1.083       .  S
C1134      S1136   1.803       .  S
S1135      H1138   1.407       .  S
S1136      H1137   1.408       .  S
C1141      C1142   1.405   1_565  A
C1141      C1146   1.418       .  A
C1142      C1143   1.401       .  A
C1142      H1151   1.084       .  S
C1143      C1144   1.414       .  A
C1143      S1147   1.804       .  S
C1144      C1145   1.404       .  A
C1145      C1146   1.403   1_545  A
C1145      H1152   1.084       .  S
C1146      S1148   1.804       .  S
S1147      H1150   1.408       .  S
S1148      H1149   1.407       .  S
C1153      C1154   1.402       .  A
C1153      C1158   1.427       .  A
C1154      C1155   1.402       .  A
C1154      H1163   1.084       .  S
C1155      C1156   1.425       .  A
C1155      S1159   1.804       .  S
C1156      C1157   1.401       .  A
C1157      C1158   1.401       .  A
C1157      H1164   1.084       .  S
C1158      S1160   1.805       .  S
S1159      H1162   1.408       .  S
S1160      H1161   1.409       .  S
C1165      C1166   1.402       .  A
C1165      C1170   1.419       .  A
C1166      C1167   1.401       .  A
C1166      H1175   1.084       .  S
C1167      C1168   1.422       .  A
C1167      S1171   1.803       .  S
C1168      C1169   1.405       .  A
C1169      C1170   1.401       .  A
C1169      H1176   1.084       .  S
C1170      S1172   1.805       .  S
S1171      H1174   1.408       .  S
S1172      H1173   1.408       .  S
C1177      C1178   1.404       .  A
C1177      C1182   1.424       .  A
C1178      C1179   1.404       .  A
C1178      H1187   1.082       .  S
C1179      C1180   1.418       .  A
C1179      S1183   1.806       .  S
C1180      C1181   1.402       .  A
C1181      C1182   1.404       .  A
C1181      H1188   1.084       .  S
C1182      S1184   1.803       .  S
S1183      H1186   1.407       .  S
S1184      H1185   1.408       .  S
C1189      C1190   1.404   1_565  A
C1189      C1194   1.411       .  A
C1190      C1191   1.394       .  A
C1190      H1199   1.084       .  S
C1191      C1192   1.407       .  A
C1191      S1195   1.803       .  S
C1192      C1193   1.401   1_545  A
C1193      C1194   1.393       .  A
C1193      H1200   1.084       .  S
C1194      S1196   1.804       .  S
S1195      H1198   1.406       .  S
S1196      H1197   1.400       .  S
C1201      C1202   1.407       .  A
C1201      C1206   1.427       .  A
C1202      C1203   1.412       .  A
C1202      H1211   1.082       .  S
C1203      C1204   1.416       .  A
C1203      S1207   1.807       .  S
C1204      C1205   1.395       .  A
C1205      C1206   1.399       .  A
C1205      H1212   1.083   1_565  S
C1206      S1208   1.815       .  S
S1207      H1210   1.407   1_554  S
S1208      H1209   1.406   1_565  S
C1213      C1214   1.405   1_556  A
C1213      C1218   1.416       .  A
C1214      C1215   1.405       .  A
C1214      H1223   1.083       .  S
C1215      C1216   1.418   1_545  A
C1215      S1219   1.808       .  S
C1216      C1217   1.406   1_554  A
C1217      C1218   1.401   1_565  A
C1217      H1224   1.083       .  S
C1218      S1220   1.803       .  S
S1219      H1222   1.407       .  S
S1220      H1221   1.407       .  S
C1225      C1226   1.405       .  A
C1225      C1230   1.411       .  A
C1226      C1227   1.403       .  A
C1226      H1235   1.084       .  S
C1227      C1228   1.420       .  A
C1227      S1231   1.800       .  S
C1228      C1229   1.412       .  A
C1229      C1230   1.400       .  A
C1229      H1236   1.083       .  S
C1230      S1232   1.803       .  S
S1231      H1234   1.408       .  S
S1232      H1233   1.407       .  S
C1237      C1238   1.406       .  A
C1237      C1242   1.415       .  A
C1238      C1239   1.405       .  A
C1238      H1247   1.084       .  S
C1239      C1240   1.419       .  A
C1239      S1243   1.803       .  S
C1240      C1241   1.403       .  A
C1241      C1242   1.400       .  A
C1241      H1248   1.084       .  S
C1242      S1244   1.802       .  S
S1243      H1246   1.407       .  S
S1244      H1245   1.407       .  S
C1249      C1250   1.406       .  A
C1249      C1254   1.407       .  A
C1250      C1251   1.406   1_554  A
C1250      H1259   1.084   1_554  S
C1251      C1252   1.418   1_556  A
C1251      S1255   1.801       .  S
C1252      C1253   1.414       .  A
C1253      C1254   1.398       .  A
C1253      H1260   1.083       .  S
C1254      S1256   1.801       .  S
S1255      H1258   1.408       .  S
S1256      H1257   1.406       .  S
C1261      C1262   1.398       .  A
C1261      C1266   1.410       .  A
C1262      C1263   1.394       .  A
C1262      H1271   1.084       .  S
C1263      C1264   1.414       .  A
C1263      S1267   1.802       .  S
C1264      C1265   1.399       .  A
C1265      C1266   1.396       .  A
C1265      H1272   1.083       .  S
C1266      S1268   1.809   1_556  S
S1267      H1270   1.407       .  S
S1268      H1269   1.407       .  S
C1273      C1274   1.406       .  A
C1273      C1278   1.415       .  A
C1274      C1275   1.408       .  A
C1274      H1283   1.083       .  S
C1275      C1276   1.415       .  A
C1275      S1279   1.807       .  S
C1276      C1277   1.404       .  A
C1277      C1278   1.402       .  A
C1277      H1284   1.084       .  S
C1278      S1280   1.803       .  S
S1279      H1282   1.407       .  S
S1280      H1281   1.408       .  S
C1285      C1286   1.413       .  A
C1285      C1290   1.412       .  A
C1286      C1287   1.406       .  A
C1286      H1295   1.084       .  S
C1287      C1288   1.415       .  A
C1287      S1291   1.801       .  S
C1288      C1289   1.416       .  A
C1289      C1290   1.402       .  A
C1289      H1296   1.083       .  S
C1290      S1292   1.798       .  S
S1291      H1294   1.408       .  S
S1292      H1293   1.404       .  S
C1297      C1298   1.404       .  A
C1297      C1302   1.423       .  A
C1298      C1299   1.403       .  A
C1298      H1307   1.084       .  S
C1299      C1300   1.424       .  A
C1299      S1303   1.805       .  S
C1300      C1301   1.404       .  A
C1301      C1302   1.404       .  A
C1301      H1308   1.084       .  S
C1302      S1304   1.803       .  S
S1303      H1306   1.408       .  S
S1304      H1305   1.408       .  S
C1309      C1310   1.404       .  A
C1309      C1314   1.423       .  A
C1310      C1311   1.403       .  A
C1310      H1319   1.084       .  S
C1311      C1312   1.421       .  A
C1311      S1315   1.805       .  S
C1312      C1313   1.403       .  A
C1313      C1314   1.405       .  A
C1313      H1320   1.084       .  S
C1314      S1316   1.804       .  S
S1315      H1318   1.407       .  S
S1316      H1317   1.408       .  S
C1321      C1322   1.398       .  A
C1321      C1326   1.411       .  A
C1322      C1323   1.393       .  A
C1322      H1331   1.084       .  S
C1323      C1324   1.415       .  A
C1323      S1327   1.804       .  S
C1324      C1325   1.398       .  A
C1325      C1326   1.388       .  A
C1325      H1332   1.085       .  S
C1326      S1328   1.803       .  S
S1327      H1330   1.407       .  S
S1328      H1329   1.405       .  S
C1333      C1334   1.415       .  A
C1333      C1338   1.416       .  A
C1334      C1335   1.403       .  A
C1334      H1343   1.083       .  S
C1335      C1336   1.412       .  A
C1335      S1339   1.803       .  S
C1336      C1337   1.408       .  A
C1337      C1338   1.398       .  A
C1337      H1344   1.084       .  S
C1338      S1340   1.798       .  S
S1339      H1342   1.407       .  S
S1340      H1341   1.407   1_556  S
C1345      C1346   1.414       .  A
C1345      C1350   1.417       .  A
C1346      C1347   1.397       .  A
C1346      H1355   1.083       .  S
C1347      C1348   1.411       .  A
C1347      S1351   1.803       .  S
C1348      C1349   1.412       .  A
C1349      C1350   1.404       .  A
C1349      H1356   1.084       .  S
C1350      S1352   1.802       .  S
S1351      H1354   1.408       .  S
S1352      H1353   1.407       .  S
C1357      C1358   1.398       .  A
C1357      C1362   1.410       .  A
C1358      C1359   1.399       .  A
C1358      H1367   1.084       .  S
C1359      C1360   1.422       .  A
C1359      S1363   1.805       .  S
C1360      C1361   1.401       .  A
C1361      C1362   1.393       .  A
C1361      H1368   1.081       .  S
C1362      S1364   1.804       .  S
S1363      H1366   1.407       .  S
S1364      H1365   1.407       .  S
C1369      C1370   1.413       .  A
C1369      C1374   1.421       .  A
C1370      C1371   1.404       .  A
C1370      H1379   1.083       .  S
C1371      C1372   1.413       .  A
C1371      S1375   1.802       .  S
C1372      C1373   1.407       .  A
C1373      C1374   1.404       .  A
C1373      H1380   1.084       .  S
C1374      S1376   1.802       .  S
S1375      H1378   1.407       .  S
S1376      H1377   1.407       .  S
C1381      C1382   1.399       .  A
C1381      C1386   1.415       .  A
C1382      C1383   1.390       .  A
C1382      H1391   1.084       .  S
C1383      C1384   1.411       .  A
C1383      S1387   1.803       .  S
C1384      C1385   1.397       .  A
C1385      C1386   1.392       .  A
C1385      H1392   1.084       .  S
C1386      S1388   1.802       .  S
S1387      H1390   1.405       .  S
S1388      H1389   1.408       .  S
C1393      C1394   1.416       .  A
C1393      C1398   1.415       .  A
C1394      C1395   1.402       .  A
C1394      H1403   1.083       .  S
C1395      C1396   1.414       .  A
C1395      S1399   1.802       .  S
C1396      C1397   1.414       .  A
C1397      C1398   1.404       .  A
C1397      H1404   1.083       .  S
C1398      S1400   1.801       .  S
S1399      H1402   1.408       .  S
S1400      H1401   1.408       .  S
C1405      C1406   1.405       .  A
C1405      C1410   1.422       .  A
C1406      C1407   1.407       .  A
C1406      H1415   1.084       .  S
C1407      C1408   1.420       .  A
C1407      S1411   1.803       .  S
C1408      C1409   1.404       .  A
C1409      C1410   1.403       .  A
C1409      H1416   1.084       .  S
C1410      S1412   1.805       .  S
S1411      H1414   1.408       .  S
S1412      H1413   1.408       .  S
C1417      C1418   1.406       .  A
C1417      C1422   1.418   1_556  A
C1418      C1419   1.406   1_556  A
C1418      H1427   1.084       .  S
C1419      C1420   1.416       .  A
C1419      S1423   1.803       .  S
C1420      C1421   1.407       .  A
C1421      C1422   1.406       .  A
C1421      H1428   1.084       .  S
C1422      S1424   1.804       .  S
S1423      H1426   1.408       .  S
S1424      H1425   1.407   1_554  S
C1429      C1430   1.404       .  A
C1429      C1434   1.421       .  A
C1430      C1431   1.405       .  A
C1430      H1439   1.084       .  S
C1431      C1432   1.421       .  A
C1431      S1435   1.803       .  S
C1432      C1433   1.402       .  A
C1433      C1434   1.402       .  A
C1433      H1440   1.082       .  S
C1434      S1436   1.812       .  S
S1435      H1438   1.408       .  S
S1436      H1437   1.407       .  S
C1441      C1442   1.413       .  A
C1441      C1446   1.416       .  A
C1442      C1443   1.406       .  A
C1442      H1451   1.084       .  S
C1443      C1444   1.413       .  A
C1443      S1447   1.799       .  S
C1444      C1445   1.408       .  A
C1445      C1446   1.400       .  A
C1445      H1452   1.084       .  S
C1446      S1448   1.802       .  S
S1447      H1450   1.407       .  S
S1448      H1449   1.408       .  S
C1453      C1454   1.403       .  A
C1453      C1458   1.412       .  A
C1454      C1455   1.402       .  A
C1454      H1463   1.084       .  S
C1455      C1456   1.415       .  A
C1455      S1459   1.804       .  S
C1456      C1457   1.406       .  A
C1457      C1458   1.407       .  A
C1457      H1464   1.083       .  S
C1458      S1460   1.807       .  S
S1459      H1462   1.407       .  S
S1460      H1461   1.407       .  S
C1465      C1466   1.399       .  A
C1465      C1470   1.412       .  A
C1466      C1467   1.391       .  A
C1466      H1475   1.084       .  S
C1467      C1468   1.412       .  A
C1467      S1471   1.805       .  S
C1468      C1469   1.398       .  A
C1469      C1470   1.391       .  A
C1469      H1476   1.084       .  S
C1470      S1472   1.803       .  S
S1471      H1474   1.407       .  S
S1472      H1473   1.406       .  S
C1477      C1478   1.413       .  A
C1477      C1482   1.417       .  A
C1478      C1479   1.399       .  A
C1478      H1487   1.083       .  S
C1479      C1480   1.409       .  A
C1479      S1483   1.804       .  S
C1480      C1481   1.407       .  A
C1481      C1482   1.409       .  A
C1481      H1488   1.083       .  S
C1482      S1484   1.808       .  S
S1483      H1486   1.405       .  S
S1484      H1485   1.407       .  S
C1489      C1490   1.403       .  A
C1489      C1494   1.418       .  A
C1490      C1491   1.398       .  A
C1490      H1499   1.084       .  S
C1491      C1492   1.418       .  A
C1491      S1495   1.805       .  S
C1492      C1493   1.402       .  A
C1493      C1494   1.401       .  A
C1493      H1500   1.084       .  S
C1494      S1496   1.804       .  S
S1495      H1498   1.407       .  S
S1496      H1497   1.408       .  S
C1501      C1502   1.405       .  A
C1501      C1506   1.423       .  A
C1502      C1503   1.405       .  A
C1502      H1511   1.084       .  S
C1503      C1504   1.422       .  A
C1503      S1507   1.802       .  S
C1504      C1505   1.404       .  A
C1505      C1506   1.406       .  A
C1505      H1512   1.084       .  S
C1506      S1508   1.803       .  S
S1507      H1510   1.408       .  S
S1508      H1509   1.408       .  S
C1513      C1514   1.406       .  A
C1513      C1518   1.416       .  A
C1514      C1515   1.402       .  A
C1514      H1523   1.084       .  S
C1515      C1516   1.415       .  A
C1515      S1519   1.803       .  S
C1516      C1517   1.407       .  A
C1517      C1518   1.403       .  A
C1517      H1524   1.084       .  S
C1518      S1520   1.803       .  S
S1519      H1522   1.407       .  S
S1520      H1521   1.407       .  S
C1525      C1526   1.405   1_556  A
C1525      C1530   1.425       .  A
C1526      C1527   1.400       .  A
C1526      H1535   1.083       .  S
C1527      C1528   1.415   1_554  A
C1527      S1531   1.802       .  S
C1528      C1529   1.401       .  A
C1529      C1530   1.409       .  A
C1529      H1536   1.083       .  S
C1530      S1532   1.810   1_565  S
S1531      H1534   1.407       .  S
S1532      H1533   1.407       .  S
C1537      C1538   1.405       .  A
C1537      C1542   1.424       .  A
C1538      C1539   1.409       .  A
C1538      H1547   1.084       .  S
C1539      C1540   1.421       .  A
C1539      S1543   1.804       .  S
C1540      C1541   1.398       .  A
C1541      C1542   1.400       .  A
C1541      H1548   1.084       .  S
C1542      S1544   1.806       .  S
S1543      H1546   1.407       .  S
S1544      H1545   1.408       .  S
C1549      C1550   1.403       .  A
C1549      C1554   1.408       .  A
C1550      C1551   1.395       .  A
C1550      H1559   1.085       .  S
C1551      C1552   1.412       .  A
C1551      S1555   1.805       .  S
C1552      C1553   1.401       .  A
C1553      C1554   1.390       .  A
C1553      H1560   1.085       .  S
C1554      S1556   1.802       .  S
S1555      H1558   1.402       .  S
S1556      H1557   1.402       .  S
C1561      C1562   1.406       .  A
C1561      C1566   1.415       .  A
C1562      C1563   1.405       .  A
C1562      H1571   1.084       .  S
C1563      C1564   1.416       .  A
C1563      S1567   1.804       .  S
C1564      C1565   1.405       .  A
C1565      C1566   1.401       .  A
C1565      H1572   1.084       .  S
C1566      S1568   1.803       .  S
S1567      H1570   1.408       .  S
S1568      H1569   1.408       .  S
C1573      C1574   1.412       .  A
C1573      C1578   1.420       .  A
C1574      C1575   1.397       .  A
C1574      H1583   1.083       .  S
C1575      C1576   1.407       .  A
C1575      S1579   1.803       .  S
C1576      C1577   1.404       .  A
C1577      C1578   1.405       .  A
C1577      H1584   1.083       .  S
C1578      S1580   1.809       .  S
S1579      H1582   1.407       .  S
S1580      H1581   1.407       .  S
C1585      C1586   1.412       .  A
C1585      C1590   1.419       .  A
C1586      C1587   1.407       .  A
C1586      H1595   1.083       .  S
C1587      C1588   1.413       .  A
C1587      S1591   1.801       .  S
C1588      C1589   1.408       .  A
C1589      C1590   1.403       .  A
C1589      H1596   1.084       .  S
C1590      S1592   1.802       .  S
S1591      H1594   1.408       .  S
S1592      H1593   1.408       .  S
C1597      C1598   1.402       .  A
C1597      C1602   1.427       .  A
C1598      C1599   1.405       .  A
C1598      H1607   1.083       .  S
C1599      C1600   1.427       .  A
C1599      S1603   1.804       .  S
C1600      C1601   1.401       .  A
C1601      C1602   1.402       .  A
C1601      H1608   1.083       .  S
C1602      S1604   1.805       .  S
S1603      H1606   1.408       .  S
S1604      H1605   1.408       .  S
C1609      C1610   1.416       .  A
C1609      C1614   1.416       .  A
C1610      C1611   1.402       .  A
C1610      H1619   1.083       .  S
C1611      C1612   1.410       .  A
C1611      S1615   1.805       .  S
C1612      C1613   1.405       .  A
C1613      C1614   1.399       .  A
C1613      H1620   1.084       .  S
C1614      S1616   1.798       .  S
S1615      H1618   1.407   1_554  S
S1616      H1617   1.404       .  S
C1621      C1622   1.406       .  A
C1621      C1626   1.409       .  A
C1622      C1623   1.401       .  A
C1622      H1631   1.084       .  S
C1623      C1624   1.418       .  A
C1623      S1627   1.800       .  S
C1624      C1625   1.415       .  A
C1625      C1626   1.402       .  A
C1625      H1632   1.083       .  S
C1626      S1628   1.803       .  S
S1627      H1630   1.408       .  S
S1628      H1629   1.407       .  S
C1633      C1634   1.395       .  A
C1633      C1638   1.410       .  A
C1634      C1635   1.390       .  A
C1634      H1643   1.084       .  S
C1635      C1636   1.414       .  A
C1635      S1639   1.802       .  S
C1636      C1637   1.401       .  A
C1637      C1638   1.395       .  A
C1637      H1644   1.083       .  S
C1638      S1640   1.810       .  S
S1639      H1642   1.407       .  S
S1640      H1641   1.407       .  S
C1645      C1646   1.401       .  A
C1645      C1650   1.427       .  A
C1646      C1647   1.403       .  A
C1646      H1655   1.082       .  S
C1647      C1648   1.425       .  A
C1647      S1651   1.805       .  S
C1648      C1649   1.401       .  A
C1649      C1650   1.405       .  A
C1649      H1656   1.084       .  S
C1650      S1652   1.804       .  S
S1651      H1654   1.409       .  S
S1652      H1653   1.409       .  S
C1657      C1658   1.415       .  A
C1657      C1662   1.418       .  A
C1658      C1659   1.406       .  A
C1658      H1667   1.083       .  S
C1659      C1660   1.412       .  A
C1659      S1663   1.802       .  S
C1660      C1661   1.403       .  A
C1661      C1662   1.402       .  A
C1661      H1668   1.084       .  S
C1662      S1664   1.791       .  S
S1663      H1666   1.405       .  S
S1664      H1665   1.408       .  S
C1669      C1670   1.403       .  A
C1669      C1674   1.420       .  A
C1670      C1671   1.404       .  A
C1670      H1679   1.084       .  S
C1671      C1672   1.419       .  A
C1671      S1675   1.802       .  S
C1672      C1673   1.404       .  A
C1673      C1674   1.403       .  A
C1673      H1680   1.083       .  S
C1674      S1676   1.812       .  S
S1675      H1678   1.407       .  S
S1676      H1677   1.407       .  S
C1681      C1682   1.398       .  A
C1681      C1686   1.411   1_655  A
C1682      C1683   1.391       .  A
C1682      H1691   1.084       .  S
C1683      C1684   1.413   1_655  A
C1683      S1687   1.804       .  S
C1684      C1685   1.399       .  A
C1685      C1686   1.390       .  A
C1685      H1692   1.084       .  S
C1686      S1688   1.804       .  S
S1687      H1690   1.406       .  S
S1688      H1689   1.406   1_455  S
C1693      C1694   1.411       .  A
C1693      C1698   1.416   1_554  A
C1694      C1695   1.406       .  A
C1694      H1703   1.084       .  S
C1695      C1696   1.415       .  A
C1695      S1699   1.801       .  S
C1696      C1697   1.410       .  A
C1697      C1698   1.401   1_554  A
C1697      H1704   1.083   1_554  S
C1698      S1700   1.803       .  S
S1699      H1702   1.408       .  S
S1700      H1701   1.407       .  S
C1705      C1706   1.404       .  A
C1705      C1710   1.420   1_556  A
C1706      C1707   1.411       .  A
C1706      H1715   1.082       .  S
C1707      C1708   1.422   1_556  A
C1707      S1711   1.809   1_455  S
C1708      C1709   1.403       .  A
C1709      C1710   1.399       .  A
C1709      H1716   1.084       .  S
C1710      S1712   1.806       .  S
S1711      H1714   1.407       .  S
S1712      H1713   1.407       .  S
C1717      C1718   1.404       .  A
C1717      C1722   1.414       .  A
C1718      C1719   1.399       .  A
C1718      H1727   1.083       .  S
C1719      C1720   1.413       .  A
C1719      S1723   1.804       .  S
C1720      C1721   1.405       .  A
C1721      C1722   1.402       .  A
C1721      H1728   1.084       .  S
C1722      S1724   1.803       .  S
S1723      H1726   1.408       .  S
S1724      H1725   1.408       .  S
C1729      C1730   1.415       .  A
C1729      C1734   1.416       .  A
C1730      C1731   1.403       .  A
C1730      H1739   1.083       .  S
C1731      C1732   1.412       .  A
C1731      S1735   1.801       .  S
C1732      C1733   1.413       .  A
C1733      C1734   1.409       .  A
C1733      H1740   1.084       .  S
C1734      S1736   1.802       .  S
S1735      H1738   1.408       .  S
S1736      H1737   1.408       .  S
C1741      C1742   1.411       .  A
C1741      C1746   1.419       .  A
C1742      C1743   1.397       .  A
C1742      H1751   1.083       .  S
C1743      C1744   1.407       .  A
C1743      S1747   1.796       .  S
C1744      C1745   1.405       .  A
C1745      C1746   1.401       .  A
C1745      H1752   1.084       .  S
C1746      S1748   1.798       .  S
S1747      H1750   1.407       .  S
S1748      H1749   1.404       .  S
C1753      C1754   1.403       .  A
C1753      C1758   1.420       .  A
C1754      C1755   1.406       .  A
C1754      H1763   1.084       .  S
C1755      C1756   1.421       .  A
C1755      S1759   1.803       .  S
C1756      C1757   1.402       .  A
C1757      C1758   1.399       .  A
C1757      H1764   1.084       .  S
C1758      S1760   1.804       .  S
S1759      H1762   1.408       .  S
S1760      H1761   1.407       .  S
C1765      C1766   1.407       .  A
C1765      C1770   1.419       .  A
C1766      C1767   1.408       .  A
C1766      H1775   1.084       .  S
C1767      C1768   1.418       .  A
C1767      S1771   1.802       .  S
C1768      C1769   1.406       .  A
C1769      C1770   1.407       .  A
C1769      H1776   1.084       .  S
C1770      S1772   1.803       .  S
S1771      H1774   1.407       .  S
S1772      H1773   1.407       .  S
C1777      C1778   1.405       .  A
C1777      C1782   1.411       .  A
C1778      C1779   1.392       .  A
C1778      H1787   1.084       .  S
C1779      C1780   1.404       .  A
C1779      S1783   1.804       .  S
C1780      C1781   1.399       .  A
C1781      C1782   1.391       .  A
C1781      H1788   1.085       .  S
C1782      S1784   1.804       .  S
S1783      H1786   1.406       .  S
S1784      H1785   1.404       .  S
C1789      C1790   1.403   1_455  A
C1789      C1794   1.422       .  A
C1790      C1791   1.405       .  A
C1790      H1799   1.082       .  S
C1791      C1792   1.422       .  A
C1791      S1795   1.811       .  S
C1792      C1793   1.403   1_655  A
C1793      C1794   1.401       .  A
C1793      H1800   1.084       .  S
C1794      S1796   1.805       .  S
S1795      H1798   1.407       .  S
S1796      H1797   1.408       .  S
C1801      C1802   1.412       .  A
C1801      C1806   1.415       .  A
C1802      C1803   1.398       .  A
C1802      H1811   1.084       .  S
C1803      C1804   1.412       .  A
C1803      S1807   1.804       .  S
C1804      C1805   1.409       .  A
C1805      C1806   1.407       .  A
C1805      H1812   1.084   1_565  S
C1806      S1808   1.799       .  S
S1807      H1810   1.407       .  S
S1808      H1809   1.405       .  S
C1813      C1814   1.412       .  A
C1813      C1818   1.416       .  A
C1814      C1815   1.409       .  A
C1814      H1823   1.084       .  S
C1815      C1816   1.417       .  A
C1815      S1819   1.798       .  S
C1816      C1817   1.414       .  A
C1817      C1818   1.406       .  A
C1817      H1824   1.084       .  S
C1818      S1820   1.802       .  S
S1819      H1822   1.408       .  S
S1820      H1821   1.407       .  S
C1825      C1826   1.406       .  A
C1825      C1830   1.419       .  A
C1826      C1827   1.403       .  A
C1826      H1835   1.084       .  S
C1827      C1828   1.421       .  A
C1827      S1831   1.801       .  S
C1828      C1829   1.408       .  A
C1829      C1830   1.408       .  A
C1829      H1836   1.084       .  S
C1830      S1832   1.803       .  S
S1831      H1834   1.407       .  S
S1832      H1833   1.408       .  S
C1837      C1838   1.397       .  A
C1837      C1842   1.420       .  A
C1838      C1839   1.407       .  A
C1838      H1847   1.082       .  S
C1839      C1840   1.432       .  A
C1839      S1843   1.814   1_655  S
C1840      C1841   1.405       .  A
C1841      C1842   1.405       .  A
C1841      H1848   1.084       .  S
C1842      S1844   1.805       .  S
S1843      H1846   1.406   1_455  S
S1844      H1845   1.407       .  S
C1849      C1850   1.410       .  A
C1849      C1854   1.419       .  A
C1850      C1851   1.400       .  A
C1850      H1859   1.083       .  S
C1851      C1852   1.414       .  A
C1851      S1855   1.799       .  S
C1852      C1853   1.408       .  A
C1853      C1854   1.402       .  A
C1853      H1860   1.083       .  S
C1854      S1856   1.803       .  S
S1855      H1858   1.406       .  S
S1856      H1857   1.408   1_556  S
C1861      C1862   1.402       .  A
C1861      C1866   1.418       .  A
C1862      C1863   1.401       .  A
C1862      H1871   1.084       .  S
C1863      C1864   1.423       .  A
C1863      S1867   1.805       .  S
C1864      C1865   1.405       .  A
C1865      C1866   1.406       .  A
C1865      H1872   1.083       .  S
C1866      S1868   1.803       .  S
S1867      H1870   1.408       .  S
S1868      H1869   1.408       .  S
C1873      C1874   1.411       .  A
C1873      C1878   1.410       .  A
C1874      C1875   1.406   1_655  A
C1874      H1883   1.084       .  S
C1875      C1876   1.415       .  A
C1875      S1879   1.802       .  S
C1876      C1877   1.414       .  A
C1877      C1878   1.398   1_455  A
C1877      H1884   1.083       .  S
C1878      S1880   1.803       .  S
S1879      H1882   1.408       .  S
S1880      H1881   1.407       .  S
C1885      C1886   1.397       .  A
C1885      C1890   1.412       .  A
C1886      C1887   1.389       .  A
C1886      H1895   1.085       .  S
C1887      C1888   1.413       .  A
C1887      S1891   1.803       .  S
C1888      C1889   1.400       .  A
C1889      C1890   1.393       .  A
C1889      H1896   1.084       .  S
C1890      S1892   1.804       .  S
S1891      H1894   1.407       .  S
S1892      H1893   1.405       .  S
C1897      C1898   1.411       .  A
C1897      C1902   1.414       .  A
C1898      C1899   1.404       .  A
C1898      H1907   1.083       .  S
C1899      C1900   1.416       .  A
C1899      S1903   1.801       .  S
C1900      C1901   1.407       .  A
C1901      C1902   1.402       .  A
C1901      H1908   1.079       .  S
C1902      S1904   1.800       .  S
S1903      H1906   1.406       .  S
S1904      H1905   1.406       .  S
C1909      C1910   1.405       .  A
C1909      C1914   1.413       .  A
C1910      C1911   1.400       .  A
C1910      H1919   1.084       .  S
C1911      C1912   1.419       .  A
C1911      S1915   1.797       .  S
C1912      C1913   1.412       .  A
C1913      C1914   1.404       .  A
C1913      H1920   1.083       .  S
C1914      S1916   1.799       .  S
S1915      H1918   1.407       .  S
S1916      H1917   1.407       .  S
C1921      C1922   1.405       .  A
C1921      C1926   1.421       .  A
C1922      C1923   1.407       .  A
C1922      H1931   1.082       .  S
C1923      C1924   1.420       .  A
C1923      S1927   1.810       .  S
C1924      C1925   1.404       .  A
C1925      C1926   1.404       .  A
C1925      H1932   1.084       .  S
C1926      S1928   1.804       .  S
S1927      H1930   1.406       .  S
S1928      H1929   1.408       .  S
C1933      C1934   1.406       .  A
C1933      C1938   1.417       .  A
C1934      C1935   1.402       .  A
C1934      H1943   1.084       .  S
C1935      C1936   1.417       .  A
C1935      S1939   1.803       .  S
C1936      C1937   1.406       .  A
C1937      C1938   1.402       .  A
C1937      H1944   1.084       .  S
C1938      S1940   1.801       .  S
S1939      H1942   1.408       .  S
S1940      H1941   1.407       .  S
C1945      C1946   1.411   1_556  A
C1945      C1950   1.417       .  A
C1946      C1947   1.397       .  A
C1946      H1955   1.084       .  S
C1947      C1948   1.413       .  A
C1947      S1951   1.803       .  S
C1948      C1949   1.409   1_554  A
C1949      C1950   1.406       .  A
C1949      H1956   1.084       .  S
C1950      S1952   1.798       .  S
S1951      H1954   1.407       .  S
S1952      H1953   1.408       .  S
C1957      C1958   1.410       .  A
C1957      C1962   1.417       .  A
C1958      C1959   1.397   1_554  A
C1958      H1967   1.084   1_554  S
C1959      C1960   1.414   1_556  A
C1959      S1963   1.802       .  S
C1960      C1961   1.410       .  A
C1961      C1962   1.408       .  A
C1961      H1968   1.084       .  S
C1962      S1964   1.800       .  S
S1963      H1966   1.406       .  S
S1964      H1965   1.407       .  S
C1969      C1970   1.403       .  A
C1969      C1974   1.407       .  A
C1970      C1971   1.394       .  A
C1970      H1979   1.084       .  S
C1971      C1972   1.407       .  A
C1971      S1975   1.803       .  S
C1972      C1973   1.403       .  A
C1973      C1974   1.392       .  A
C1973      H1980   1.084       .  S
C1974      S1976   1.803       .  S
S1975      H1978   1.407       .  S
S1976      H1977   1.408       .  S
C1981      C1982   1.405       .  A
C1981      C1986   1.417       .  A
C1982      C1983   1.403       .  A
C1982      H1991   1.082       .  S
C1983      C1984   1.416       .  A
C1983      S1987   1.802       .  S
C1984      C1985   1.406       .  A
C1985      C1986   1.405       .  A
C1985      H1992   1.084       .  S
C1986      S1988   1.804       .  S
S1987      H1990   1.407       .  S
S1988      H1989   1.407       .  S
C1993      C1994   1.400       .  A
C1993      C1998   1.421       .  A
C1994      C1995   1.399       .  A
C1994      H2003   1.084       .  S
C1995      C1996   1.424       .  A
C1995      S1999   1.804       .  S
C1996      C1997   1.403       .  A
C1997      C1998   1.401       .  A
C1997      H2004   1.084       .  S
C1998      S2000   1.802       .  S
S1999      H2002   1.408       .  S
S2000      H2001   1.407       .  S
C2005      C2006   1.407       .  A
C2005      C2010   1.409       .  A
C2006      C2007   1.407       .  A
C2006      H2015   1.084       .  S
C2007      C2008   1.417       .  A
C2007      S2011   1.799       .  S
C2008      C2009   1.412       .  A
C2009      C2010   1.400       .  A
C2009      H2016   1.083       .  S
C2010      S2012   1.804       .  S
S2011      H2014   1.407       .  S
S2012      H2013   1.405       .  S
C2017      C2018   1.410       .  A
C2017      C2022   1.413       .  A
C2018      C2019   1.402       .  A
C2018      H2027   1.084       .  S
C2019      C2020   1.415       .  A
C2019      S2023   1.802       .  S
C2020      C2021   1.410       .  A
C2021      C2022   1.402       .  A
C2021      H2028   1.084       .  S
C2022      S2024   1.799       .  S
S2023      H2026   1.408       .  S
S2024      H2025   1.407       .  S
C2029      C2030   1.407       .  A
C2029      C2034   1.414       .  A
C2030      C2031   1.407   1_655  A
C2030      H2039   1.084       .  S
C2031      C2032   1.416       .  A
C2031      S2035   1.803       .  S
C2032      C2033   1.406       .  A
C2033      C2034   1.403   1_455  A
C2033      H2040   1.081       .  S
C2034      S2036   1.804       .  S
S2035      H2038   1.406       .  S
S2036      H2037   1.407       .  S
C2041      C2042   1.408       .  A
C2041      C2046   1.416       .  A
C2042      C2043   1.398       .  A
C2042      H2051   1.084       .  S
C2043      C2044   1.414       .  A
C2043      S2047   1.800       .  S
C2044      C2045   1.410       .  A
C2045      C2046   1.406       .  A
C2045      H2052   1.084       .  S
C2046      S2048   1.799       .  S
S2047      H2050   1.408       .  S
S2048      H2049   1.407       .  S
C2053      C2054   1.413       .  A
C2053      C2058   1.420       .  A
C2054      C2055   1.406       .  A
C2054      H2063   1.083       .  S
C2055      C2056   1.412       .  A
C2055      S2059   1.798       .  S
C2056      C2057   1.407       .  A
C2057      C2058   1.403       .  A
C2057      H2064   1.084       .  S
C2058      S2060   1.801       .  S
S2059      H2062   1.407       .  S
S2060      H2061   1.408       .  S
C2065      C2066   1.411       .  A
C2065      C2070   1.412       .  A
C2066      C2067   1.405       .  A
C2066      H2075   1.084       .  S
C2067      C2068   1.417       .  A
C2067      S2071   1.803       .  S
C2068      C2069   1.414       .  A
C2069      C2070   1.400       .  A
C2069      H2076   1.083       .  S
C2070      S2072   1.803       .  S
S2071      H2074   1.406       .  S
S2072      H2073   1.408       .  S
C2077      C2078   1.397       .  A
C2077      C2082   1.414   1_655  A
C2078      C2079   1.391       .  A
C2078      H2087   1.084       .  S
C2079      C2080   1.412   1_655  A
C2079      S2083   1.801       .  S
C2080      C2081   1.399       .  A
C2081      C2082   1.395       .  A
C2081      H2088   1.084       .  S
C2082      S2084   1.804       .  S
S2083      H2086   1.405   1_655  S
S2084      H2085   1.405   1_455  S
C2089      C2090   1.405       .  A
C2089      C2094   1.416   1_556  A
C2090      C2091   1.399   1_655  A
C2090      H2099   1.084       .  S
C2091      C2092   1.417   1_556  A
C2091      S2095   1.802       .  S
C2092      C2093   1.407   1_455  A
C2093      C2094   1.402       .  A
C2093      H2100   1.084       .  S
C2094      S2096   1.803       .  S
S2095      H2098   1.407       .  S
S2096      H2097   1.407       .  S
C2101      C2102   1.405   1_655  A
C2101      C2106   1.424       .  A
C2102      C2103   1.401       .  A
C2102      H2111   1.084       .  S
C2103      C2104   1.418       .  A
C2103      S2107   1.802       .  S
C2104      C2105   1.402   1_455  A
C2105      C2106   1.405       .  A
C2105      H2112   1.082       .  S
C2106      S2108   1.812       .  S
S2107      H2110   1.408       .  S
S2108      H2109   1.407       .  S
C2113      C2114   1.412       .  A
C2113      C2118   1.418       .  A
C2114      C2115   1.405       .  A
C2114      H2123   1.083       .  S
C2115      C2116   1.413       .  A
C2115      S2119   1.798       .  S
C2116      C2117   1.410       .  A
C2117      C2118   1.404       .  A
C2117      H2124   1.084       .  S
C2118      S2120   1.801       .  S
S2119      H2122   1.407       .  S
S2120      H2121   1.408       .  S
C2125      C2126   1.415       .  A
C2125      C2130   1.419       .  A
C2126      C2127   1.411       .  A
C2126      H2135   1.083   1_455  S
C2127      C2128   1.415       .  A
C2127      S2131   1.798       .  S
C2128      C2129   1.413       .  A
C2129      C2130   1.405       .  A
C2129      H2136   1.084       .  S
C2130      S2132   1.801       .  S
S2131      H2134   1.407       .  S
S2132      H2133   1.407       .  S
C2137      C2138   1.407       .  A
C2137      C2142   1.418       .  A
C2138      C2139   1.403       .  A
C2138      H2147   1.084       .  S
C2139      C2140   1.416       .  A
C2139      S2143   1.802       .  S
C2140      C2141   1.407       .  A
C2141      C2142   1.405       .  A
C2141      H2148   1.084       .  S
C2142      S2144   1.802       .  S
S2143      H2146   1.407       .  S
S2144      H2145   1.407       .  S
C2149      C2150   1.414       .  A
C2149      C2154   1.416       .  A
C2150      C2151   1.399       .  A
C2150      H2159   1.083   1_455  S
C2151      C2152   1.410       .  A
C2151      S2155   1.802       .  S
C2152      C2153   1.414       .  A
C2153      C2154   1.408       .  A
C2153      H2160   1.084       .  S
C2154      S2156   1.803       .  S
S2155      H2158   1.407       .  S
S2156      H2157   1.407       .  S
C2161      C2162   1.406       .  A
C2161      C2166   1.408       .  A
C2162      C2163   1.402       .  A
C2162      H2171   1.084       .  S
C2163      C2164   1.419       .  A
C2163      S2167   1.800       .  S
C2164      C2165   1.414       .  A
C2165      C2166   1.398       .  A
C2165      H2172   1.083       .  S
C2166      S2168   1.802       .  S
S2167      H2170   1.404       .  S
S2168      H2169   1.407       .  S
C2173      C2174   1.413       .  A
C2173      C2178   1.419       .  A
C2174      C2175   1.402       .  A
C2174      H2183   1.083       .  S
C2175      C2176   1.410       .  A
C2175      S2179   1.799       .  S
C2176      C2177   1.407       .  A
C2177      C2178   1.401       .  A
C2177      H2184   1.084       .  S
C2178      S2180   1.802       .  S
S2179      H2182   1.407       .  S
S2180      H2181   1.408       .  S
C2185      C2186   1.411       .  A
C2185      C2190   1.416       .  A
C2186      C2187   1.408       .  A
C2186      H2195   1.084       .  S
C2187      C2188   1.418       .  A
C2187      S2191   1.799       .  S
C2188      C2189   1.411       .  A
C2189      C2190   1.402       .  A
C2189      H2196   1.084       .  S
C2190      S2192   1.799       .  S
S2191      H2194   1.408       .  S
S2192      H2193   1.407       .  S
C2197      C2198   1.398       .  A
C2197      C2202   1.413       .  A
C2198      C2199   1.393       .  A
C2198      H2207   1.084       .  S
C2199      C2200   1.413       .  A
C2199      S2203   1.802       .  S
C2200      C2201   1.399       .  A
C2201      C2202   1.394       .  A
C2201      H2208   1.084       .  S
C2202      S2204   1.802       .  S
S2203      H2206   1.407       .  S
S2204      H2205   1.407       .  S
C2209      C2210   1.415       .  A
C2209      C2214   1.417       .  A
C2210      C2211   1.400   1_655  A
C2210      H2219   1.083       .  S
C2211      C2212   1.410       .  A
C2211      S2215   1.804       .  S
C2212      C2213   1.410       .  A
C2213      C2214   1.406   1_455  A
C2213      H2220   1.084       .  S
C2214      S2216   1.802       .  S
S2215      H2218   1.407       .  S
S2216      H2217   1.404       .  S
C2221      C2222   1.406       .  A
C2221      C2226   1.418       .  A
C2222      C2223   1.404       .  A
C2222      H2231   1.084       .  S
C2223      C2224   1.418       .  A
C2223      S2227   1.802       .  S
C2224      C2225   1.408       .  A
C2225      C2226   1.406       .  A
C2225      H2232   1.084       .  S
C2226      S2228   1.802       .  S
S2227      H2230   1.408       .  S
S2228      H2229   1.407       .  S
