geometry optimzed in LAMMPS
_audit_creation_date              2020-12-01 
_audit_creation_method            'lammps2cif' 
_symmetry_space_group_name_H-M    'P1' 
_symmetry_Int_Tables_number       1 
_symmetry_cell_setting            triclinic 
loop_ 
_symmetry_equiv_pos_as_xyz 
  x,y,z 
_cell_length_a                    39.24761781 
_cell_length_b                    39.87330932117501 
_cell_length_c                    35.33385341928151 
_cell_angle_alpha                 90.62282008853394 
_cell_angle_beta                  90.48416114500608 
_cell_angle_gamma                 90.10569227146593 
loop_ 
_atom_site_label 
_atom_site_type_symbol 
_atom_site_fract_x 
_atom_site_fract_y 
_atom_site_fract_z 
_atom_site_charge 
O1          O  0.39766424  0.32815815  0.63200768    -0.82000
C2          C  0.99509643  0.40536040  0.71116925     0.97400
O3          O  0.99761694  0.37373624  0.70561746    -0.71100
O4          O  0.44208589  0.33981687  0.72513828    -0.74700
Al5        Al  0.46704579  0.34152437  0.67949462     1.49000
C6          C  0.41029212  0.33966761  0.73034394     0.92600
O7          O  0.38646369  0.41197500  0.67850466    -0.80900
O8          O  0.44824976  0.39842953  0.59260777    -0.74500
Al9        Al  0.39596231  0.36954059  0.65554091     1.90100
O10         O  0.42354714  0.43932323  0.64567744    -0.73600
O11         O  0.00530847  0.39117166  0.63051485    -0.73400
O12         O  0.47576414  0.42307164  0.69071194    -0.79100
O13         O  0.99482214  0.33806177  0.63552531    -0.77300
O14         O  0.44116013  0.37347759  0.65955085    -1.13400
O15         O  0.44163776  0.30383729  0.65778231    -0.72600
C16         C  0.41525483  0.30249405  0.63690279     0.98100
C17         C  0.39479923  0.43791616  0.66100516     0.94500
Al18       Al  0.46142126  0.41001073  0.64187179     1.55600
O19         O  0.39006810  0.34966211  0.70468466    -0.77200
C20         C  0.01137073  0.36143288  0.62052354     0.98700
C21         C  0.41820033  0.39275283  0.58101811     0.93600
O22         O  0.39426833  0.38709549  0.60421660    -0.82500
O23         O  0.08089175  0.34686935  0.39088541    -0.82000
C24         C  0.15644745  0.24405248  0.45860068     0.97400
O25         O  0.12430463  0.24279261  0.45283546    -0.71100
O26         O  0.08964868  0.29516750  0.47803242    -0.74700
Al27       Al  0.09254712  0.27530464  0.42960943     1.49000
C28         C  0.08981196  0.32552624  0.48798813     0.92600
O29         O  0.16348546  0.35593461  0.44183921    -0.80900
O30         O  0.15605313  0.30395953  0.34733429    -0.74500
Al31       Al  0.12156141  0.34729649  0.41641623     1.90100
O32         O  0.19350700  0.32108576  0.40805805    -0.73600
O33         O  0.14428548  0.24406747  0.37495737    -0.73400
O34         O  0.17442396  0.26498071  0.44103490    -0.79100
O35         O  0.09007586  0.25186267  0.38314665    -0.77300
O36         O  0.12584270  0.30271260  0.41401163    -1.13400
O37         O  0.05443161  0.30198968  0.40940407    -0.72600
C38         C  0.05459974  0.32926582  0.39124002     0.98100
C39         C  0.19131500  0.34784682  0.42709930     0.94500
Al40       Al  0.16373967  0.28497134  0.39495390     1.55600
O41         O  0.09994665  0.34784909  0.46535914    -0.77200
C42         C  0.11387248  0.23707421  0.36641598     0.98700
C43         C  0.15104721  0.33466895  0.34115697     0.93600
O44         O  0.14138811  0.35463295  0.36713129    -0.82500
O45         O  0.07927927  0.17753000  0.13623747    -0.82000
C46         C  0.48196929  0.09451164  0.20716255     0.97400
O47         O  0.48041446  0.12647030  0.20583238    -0.71100
O48         O  0.03748005  0.15508036  0.23246941    -0.74700
Al49       Al  0.01315277  0.15998690  0.18638825     1.49000
C50         C  0.06917411  0.15928752  0.23681386     0.92600
O51         O  0.09426312  0.09338498  0.17989201    -0.80900
O52         O  0.03364937  0.10855366  0.09183106    -0.74500
Al53       Al  0.08367750  0.13568157  0.15882143     1.90100
O54         O  0.05760808  0.06486349  0.14527234    -0.73600
O55         O  0.47662818  0.11619041  0.12798433    -0.73400
O56         O  0.50278584  0.07898286  0.18624620    -0.79100
O57         O  0.48675450  0.16864388  0.14189995    -0.77300
O58         O  0.03887915  0.13009207  0.16221871    -1.13400
O59         O  0.04038108  0.19949594  0.17289009    -0.72600
C60         C  0.06415665  0.20277115  0.14904202     0.98100
C61         C  0.08543944  0.06650127  0.16351253     0.94500
Al62       Al  0.01925542  0.09490993  0.13995917     1.55600
O63         O  0.08908789  0.15501603  0.20904794    -0.77200
C64         C  0.47108842  0.14691620  0.12220837     0.98700
C65         C  0.06416171  0.11360874  0.08277812     0.93600
O66         O  0.08704012  0.11847777  0.10775485    -0.82500
O67         O  0.40271700  0.15513162  0.89103925    -0.82000
C68         C  0.32576907  0.26093898  0.95312774     0.97400
O69         O  0.35826897  0.26127231  0.94988778    -0.71100
O70         O  0.39412290  0.20974118  0.97610664    -0.74700
Al71       Al  0.39095478  0.22885223  0.92750220     1.49000
C72         C  0.39390498  0.17965250  0.98660667     0.92600
O73         O  0.31950794  0.15128729  0.94049833    -0.80900
O74         O  0.33251158  0.19764281  0.84335510    -0.74500
Al75       Al  0.36161317  0.15659068  0.91550704     1.90100
O76         O  0.29041397  0.18193073  0.90117789    -0.73600
O77         O  0.33990917  0.25872496  0.87028340    -0.73400
O78         O  0.30796474  0.23991473  0.93441071    -0.79100
O79         O  0.39390495  0.25211879  0.88097908    -0.77300
O80         O  0.35802791  0.20115707  0.91145994    -1.13400
O81         O  0.42880977  0.20150364  0.90763198    -0.72600
C82         C  0.42883057  0.17314985  0.89076959     0.98100
C83         C  0.29214706  0.15741853  0.92330136     0.94500
Al84       Al  0.32087941  0.21807181  0.88955140     1.55600
O85         O  0.38307403  0.15689491  0.96450039    -0.77200
C86         C  0.37024560  0.26629439  0.86320851     0.98700
C87         C  0.33793698  0.16671841  0.83835007     0.93600
O88         O  0.34211101  0.14713008  0.86602659    -0.82500
O89         O  0.15303491  0.09567214  0.87663587    -0.82000
C90         C  0.07592398  0.49127456  0.81050292     0.97400
O91         O  0.10843953  0.49093481  0.81391854    -0.71100
O92         O  0.14365061  0.04353803  0.78848306    -0.74700
Al93       Al  0.14130451  0.02329238  0.83678464     1.49000
C94         C  0.14409476  0.07404882  0.77940527     0.92600
O95         O  0.06954872  0.10126562  0.82628232    -0.80900
O96         O  0.08334576  0.05166306  0.92185900    -0.74500
Al97       Al  0.11200931  0.09503357  0.85140682     1.90100
O98         O  0.04094571  0.06905879  0.86405757    -0.73600
O99         O  0.09093331  0.49181615  0.89226289    -0.73400
O100        O  0.05839855  0.51235468  0.82897775    -0.79100
O101        O  0.14493145  0.49929787  0.88294059    -0.77300
O102        O  0.10847416  0.05042572  0.85361769    -1.13400
O103        O  0.17924777  0.05048533  0.85712484    -0.72600
C104        C  0.17926033  0.07796382  0.87570132     0.98100
C105        C  0.04230470  0.09433946  0.84302091     0.94500
Al106      Al  0.07159561  0.03274828  0.87456912     1.55600
O107        O  0.13363605  0.09612144  0.80251355    -0.77200
C108        C  0.12132603  0.48470787  0.90003052     0.98700
C109        C  0.08793421  0.08258759  0.92787202     0.93600
O110        O  0.09258370  0.10283123  0.90093270    -0.82500
O111        O  0.32898787  0.07178100  0.62942885    -0.82000
C112        C  0.23541153  0.15948611  0.56006372     0.97400
O113        O  0.23145472  0.12794278  0.56266711    -0.71100
O114        O  0.28603777  0.09746102  0.53473012    -0.74700
Al115      Al  0.26262541  0.09335781  0.58108183     1.49000
C116        C  0.31741610  0.09194895  0.52968241     0.92600
O117        O  0.34838104  0.15550344  0.58728371    -0.80900
O118        O  0.28844130  0.14334909  0.67496025    -0.74500
Al119      Al  0.33532557  0.11370103  0.60755052     1.90100
O120        O  0.31339680  0.18579891  0.62133949    -0.73600
O121        O  0.22983837  0.13868998  0.64021081    -0.73400
O122        O  0.25679647  0.17474599  0.58094969    -0.79100
O123        O  0.23683828  0.08590624  0.62582101    -0.77300
O124        O  0.29070825  0.12175726  0.60483463    -1.13400
O125        O  0.28760977  0.05270372  0.59330619    -0.72600
C126        C  0.31206519  0.04775263  0.61609758     0.98100
C127        C  0.34089197  0.18286444  0.60315424     0.94500
Al128      Al  0.27355552  0.15784704  0.62729837     1.55600
O129        O  0.33845220  0.09507509  0.55692453    -0.77200
C130        C  0.22234157  0.10822956  0.64547179     0.98700
C131        C  0.31870099  0.13610937  0.68349795     0.93600
O132        O  0.34073287  0.12990815  0.65849947    -0.82500
O133        O  0.33501965  0.40104385  0.37389407    -0.82000
C134        C  0.40289511  0.00864783  0.30628625     0.97400
O135        O  0.37075257  0.00844982  0.31218977    -0.71100
O136        O  0.33974314  0.45437084  0.28686443    -0.74700
Al137      Al  0.34113219  0.47398259  0.33511164     1.49000
C138        C  0.34089501  0.42419915  0.27645830     0.92600
O139        O  0.41679386  0.40185827  0.32143857    -0.80900
O140        O  0.40386297  0.45054863  0.41837935    -0.74500
Al141      Al  0.37515077  0.40471916  0.34765995     1.90100
O142        O  0.44499737  0.43499534  0.35986110    -0.73600
O143        O  0.38944434  0.00991258  0.39031293    -0.73400
O144        O  0.42267941  0.99015129  0.32517791    -0.79100
O145        O  0.33642974  0.99673708  0.38132579    -0.77300
O146        O  0.37600854  0.44938183  0.35097017    -1.13400
O147        O  0.30572265  0.44424454  0.35512810    -0.72600
C148        C  0.30779989  0.41710977  0.37361717     0.98100
C149        C  0.44387270  0.40920734  0.33881092     0.94500
Al150      Al  0.41233812  0.46985791  0.37139034     1.55600
O151        O  0.35224053  0.40217054  0.29880468    -0.77200
C152        C  0.35842592  0.01376530  0.39863937     0.98700
C153        C  0.40159640  0.41941447  0.42375403     0.93600
O154        O  0.39648681  0.39867771  0.39676163    -0.82500
O155        O  0.14977210  0.42420503  0.13220187    -0.82000
C156        C  0.24574195  0.34699467  0.05241243     0.97400
O157        O  0.24799791  0.37874640  0.05737619    -0.71100
O158        O  0.19085929  0.40866812  0.03668891    -0.74700
Al159      Al  0.21645979  0.41099292  0.08169409     1.49000
C160        C  0.15895985  0.40986523  0.03251688     0.92600
O161        O  0.13760203  0.33975015  0.08643055    -0.80900
O162        O  0.20160416  0.35607415  0.17171589    -0.74500
Al163      Al  0.14717244  0.38261382  0.10887584     1.90100
O164        O  0.17534052  0.31307613  0.11992002    -0.73600
O165        O  0.25679238  0.36467027  0.13156915    -0.73400
O166        O  0.22655540  0.32952218  0.07310285    -0.79100
O167        O  0.24472292  0.41749915  0.12537187    -0.77300
O168        O  0.19200279  0.37922025  0.10377437    -1.13400
O169        O  0.18969061  0.44927465  0.10056242    -0.72600
C170        C  0.16489260  0.45059033  0.12336820     0.98100
C171        C  0.14660409  0.31381285  0.10375381     0.94500
Al172      Al  0.21331213  0.34362883  0.12215522     1.55600
O173        O  0.13937968  0.40208151  0.05945499    -0.77200
C174        C  0.26219697  0.39489789  0.14077820     0.98700
C175        C  0.17168636  0.36081263  0.18363296     0.93600
O176        O  0.14718575  0.36551288  0.16043904    -0.82500
C177        C  0.31605322  0.44187938  0.21462944    -0.12500
C178        C  0.32654678  0.41551463  0.23828372     0.04500
C179        C  0.31932133  0.38229519  0.22647866    -0.07800
C180        C  0.30030397  0.37636249  0.19329430    -0.08500
C181        C  0.28744018  0.40284996  0.17138236    -0.03100
C182        C  0.29643957  0.43602622  0.18190964     0.03800
N183        N  0.28478827  0.46428845  0.16089794     0.66300
H184        H  0.32160857  0.46771788  0.22248522     0.15200
H185        H  0.29400774  0.35058608  0.18588289     0.14900
N186        N  0.32905164  0.35426390  0.24888538     0.74000
O187        O  0.25767163  0.47881357  0.17073608    -0.39500
O188        O  0.30542087  0.47949643  0.13989403    -0.39400
O189        O  0.30716496  0.34053491  0.26962995    -0.40100
O190        O  0.35610365  0.33870508  0.24108638    -0.40200
C191        C  0.30383174  0.06146512  0.47006703    -0.12500
C192        C  0.32849389  0.07771349  0.49262863     0.04500
C193        C  0.36301365  0.07567446  0.48157577    -0.07800
C194        C  0.37219340  0.05537181  0.45047912    -0.08500
C195        C  0.34756749  0.03749395  0.42924934    -0.03100
C196        C  0.31277485  0.04167396  0.43888412     0.03800
N197        N  0.28592129  0.02519071  0.41832270     0.66300
H198        H  0.27711845  0.06266935  0.47764957     0.15200
H199        H  0.39889855  0.05350626  0.44306108     0.14900
N200        N  0.38884165  0.09505628  0.50046569     0.74000
O201        O  0.27470276  0.49763450  0.43017044    -0.39500
O202        O  0.26829949  0.54193708  0.39540603    -0.39400
O203        O  0.41318794  0.08037777  0.51687502    -0.40100
O204        O  0.39195314  0.12565952  0.49244485    -0.40200
C205        C  0.10536018  0.45721303  0.96038196    -0.12500
C206        C  0.12878285  0.46055503  0.93073018     0.04500
C207        C  0.15972929  0.44275115  0.93277552    -0.07800
C208        C  0.16760329  0.42414239  0.96501306    -0.08500
C209        C  0.14549952  0.42307459  0.99612093    -0.03100
C210        C  0.11346598  0.43901994  0.99301681     0.03800
N211        N  0.08999494  0.43940161  0.02371397     0.66300
H212        H  0.08133393  0.47064083  0.95939666     0.15200
H213        H  0.19206830  0.41151236  0.96625975     0.14900
N214        N  0.18363230  0.44340685  0.90253970     0.74000
O215        O  0.09106762  0.46319776  0.04754494    -0.39500
O216        O  0.06402643  0.42072149  0.02212701    -0.39400
O217        O  0.20991240  0.96110187  0.90564201    -0.40100
O218        O  0.18261732  0.42053183  0.87759874    -0.40200
C219        C  0.17209582  0.05809420  0.71823098    -0.12500
C220        C  0.15922229  0.08358662  0.74205384     0.04500
C221        C  0.16426629  0.11730424  0.73107290    -0.07800
C222        C  0.18330628  0.12462146  0.69858927    -0.08500
C223        C  0.19775278  0.09910579  0.67603650    -0.03100
C224        C  0.19095685  0.06543372  0.68572106     0.03800
N225        N  0.20427392  0.03818027  0.66387304     0.66300
H226        H  0.16851804  0.03198774  0.72543816     0.15200
H227        H  0.18774924  0.15069570  0.69180648     0.14900
N228        N  0.15138551  0.14464463  0.75312144     0.74000
O229        O  0.18951958  0.02909906  0.63358271    -0.39500
O230        O  0.23202537  0.02466198  0.67348842    -0.39400
O231        O  0.17127776  0.16053121  0.77512478    -0.40100
O232        O  0.12312275  0.15748923  0.74418227    -0.40200
C233        C  0.27111390  0.28671921  0.97408832    -0.12500
C234        C  0.30692327  0.28569141  0.97757753     0.04500
C235        C  0.32266112  0.30827287  0.00364959    -0.07800
C236        C  0.30248062  0.32973166  0.02631718    -0.08500
C237        C  0.26671458  0.32926055  0.02364681    -0.03100
C238        C  0.25121943  0.30795433  0.99657169     0.03800
N239        N  0.21509862  0.30779599  0.99123789     0.66300
H240        H  0.25797292  0.27062958  0.95370546     0.15200
H241        H  0.31481121  0.34581032  0.04734261     0.14900
N242        N  0.35880220  0.30903575  0.00855381     0.74000
O243        O  0.20199233  0.32700742  0.96700985    -0.39500
O244        O  0.19789407  0.28349656  0.00340293    -0.39400
O245        O  0.37571379  0.33244678  0.99394998    -0.40100
O246        O  0.37237824  0.29152081  0.03408185    -0.40200
C247        C  0.31795115  0.12645710  0.78886874    -0.12500
C248        C  0.33860338  0.15369575  0.79954990     0.04500
C249        C  0.35692940  0.17112128  0.77169076    -0.07800
C250        C  0.35112231  0.16359434  0.73391270    -0.08500
C251        C  0.32892594  0.13817610  0.72298628    -0.03100
C252        C  0.31316273  0.11834692  0.75060526     0.03800
N253        N  0.29211940  0.09056167  0.73970062     0.66300
H254        H  0.30411508  0.11231252  0.81044126     0.15200
H255        H  0.36316749  0.17973048  0.71195750     0.14900
N256        N  0.38096134  0.19667655  0.78162769     0.74000
O257        O  0.30566655  0.06432668  0.72646901    -0.39500
O258        O  0.26025386  0.09419014  0.73739793    -0.39400
O259        O  0.41174060  0.18863664  0.78659434    -0.40100
O260        O  0.37384291  0.22673428  0.77431041    -0.40200
C261        C  0.20415437  0.12051919  0.91970072    -0.12500
C262        C  0.20956391  0.09219875  0.89605762     0.04500
C263        C  0.24340084  0.08193630  0.88958892    -0.07800
C264        C  0.27049027  0.10203784  0.90294095    -0.08500
C265        C  0.26448720  0.13247472  0.92221774    -0.03100
C266        C  0.23102803  0.14102661  0.93185747     0.03800
N267        N  0.22369614  0.17139315  0.95203155     0.66300
H268        H  0.17849247  0.12845485  0.92672215     0.15200
H269        H  0.29635570  0.09524014  0.89528995     0.14900
N270        N  0.25081184  0.05276414  0.86742553     0.74000
O271        O  0.21591797  0.19732680  0.93374394    -0.39500
O272        O  0.21660869  0.17002811  0.98674985    -0.39400
O273        O  0.25851531  0.05598113  0.83305616    -0.40100
O274        O  0.25784096  0.02573892  0.88398898    -0.40200
C275        C  0.45332303  0.12852929  0.84961543    -0.12500
C276        C  0.45891428  0.15835047  0.87084064     0.04500
C277        C  0.49275759  0.16997293  0.87497542    -0.07800
C278        C  0.01984670  0.15015819  0.86144231    -0.08500
C279        C  0.01391599  0.11858122  0.84437816    -0.03100
C280        C  0.48020604  0.10833611  0.83747671     0.03800
N281        N  0.47272085  0.07650362  0.82032551     0.66300
H282        H  0.42766729  0.11927792  0.84446202     0.15200
H283        H  0.04581519  0.15822699  0.86724196     0.14900
N284        N  0.00034704  0.20045599  0.89486903     0.74000
O285        O  0.46794079  0.05146257  0.84117627    -0.39500
O286        O  0.46239510  0.07539508  0.78641836    -0.39400
O287        O  0.01086144  0.19921959  0.92866973    -0.40100
O288        O  0.00466964  0.22697359  0.87633628    -0.40200
C289        C  0.41402773  0.06569898  0.27882476    -0.12500
C290        C  0.41875723  0.03078424  0.27765613     0.04500
C291        C  0.44287618  0.01750264  0.25231097    -0.07800
C292        C  0.46254441  0.03877213  0.23010132    -0.08500
C293        C  0.45908742  0.07390356  0.23186026    -0.03100
C294        C  0.43383217  0.08728372  0.25625212     0.03800
N295        N  0.42821435  0.12256128  0.25907989     0.66300
H296        H  0.39580271  0.07641685  0.29843270     0.15200
H297        H  0.48101858  0.02726543  0.21137391     0.14900
N298        N  0.44754498  0.48215564  0.24858027     0.74000
O299        O  0.40480300  0.13560171  0.23950573    -0.39500
O300        O  0.44032028  0.13860392  0.28708870    -0.39400
O301        O  0.43226911  0.46634431  0.22235777    -0.40100
O302        O  0.47271649  0.46877053  0.26479912    -0.40200
C303        C  0.42657187  0.19670018  0.04448820    -0.12500
C304        C  0.40890272  0.17136119  0.02439412     0.04500
C305        C  0.40912758  0.13855374  0.03932324    -0.07800
C306        C  0.42800550  0.13170864  0.07227768    -0.08500
C307        C  0.44727377  0.15673830  0.09106503    -0.03100
C308        C  0.44577991  0.18978957  0.07704535     0.03800
N309        N  0.46525016  0.21641165  0.09388618     0.66300
H310        H  0.42701031  0.22214555  0.03387787     0.15200
H311        H  0.42843638  0.10612474  0.08245935     0.14900
N312        N  0.39106720  0.11162598  0.02115254     0.74000
O313        O  0.99436697  0.22303932  0.08098753    -0.39500
O314        O  0.45044271  0.23782085  0.11448145    -0.39400
O315        O  0.40720747  0.09086273  0.00095477    -0.40100
O316        O  0.36167129  0.10408257  0.03252132    -0.40200
C317        C  0.08405534  0.24046910  0.09828541    -0.12500
C318        C  0.07725417  0.23577721  0.13696994     0.04500
C319        C  0.09127796  0.25857595  0.16355291    -0.07800
C320        C  0.11347102  0.28374651  0.15150281    -0.08500
C321        C  0.12140334  0.28758938  0.11311352    -0.03100
C322        C  0.10547172  0.26647428  0.08612701     0.03800
N323        N  0.11265922  0.26942702  0.04677387     0.66300
H324        H  0.07399963  0.22272150  0.07749163     0.15200
H325        H  0.12520989  0.30014360  0.17262673     0.14900
N326        N  0.08574094  0.25479106  0.20316216     0.74000
O327        O  0.13465761  0.25041772  0.03205519    -0.39500
O328        O  0.09165105  0.28434247  0.02565076    -0.39400
O329        O  0.10960856  0.24385568  0.22368415    -0.40100
O330        O  0.06142742  0.27034943  0.21846809    -0.40200
C331        C  0.12383444  0.47958929  0.16565824    -0.12500
C332        C  0.15042989  0.48245495  0.13914090     0.04500
C333        C  0.15844571  0.01480356  0.12596952    -0.07800
C334        C  0.13834352  0.04244467  0.13682645    -0.08500
C335        C  0.10985063  0.03852039  0.16028753    -0.03100
C336        C  0.10324430  0.50679964  0.17547045     0.03800
N337        N  0.07488219  0.50150012  0.19978605     0.66300
H338        H  0.11733500  0.45540969  0.17738253     0.15200
H339        H  0.14379519  0.06685284  0.12493756     0.14900
N340        N  0.18563088  0.01985303  0.10003249     0.74000
O341        O  0.04690564  0.49179839  0.18557917    -0.39500
O342        O  0.07976206  0.99794871  0.23463984    -0.39400
O343        O  0.17888495  0.02332017  0.06531793    -0.40100
O344        O  0.21447155  0.02878774  0.11260424    -0.40200
C345        C  0.10109396  0.09055485  0.03311179    -0.12500
C346        C  0.07345707  0.11093687  0.04281013     0.04500
C347        C  0.05316000  0.12516494  0.01398984    -0.07800
C348        C  0.05992782  0.11754216  0.97611763    -0.08500
C349        C  0.08594445  0.09513919  0.96673792    -0.03100
C350        C  0.10713895  0.08210654  0.99535329     0.03800
N351        N  0.13419270  0.05948594  0.98655949     0.66300
H352        H  0.11679488  0.07943034  0.05508203     0.15200
H353        H  0.04351635  0.12757641  0.95409476     0.14900
N354        N  0.02505011  0.14651551  0.02270589     0.74000
O355        O  0.16398470  0.07082403  0.98277114    -0.39500
O356        O  0.12996267  0.02848525  0.99155792    -0.39400
O357        O  0.02892198  0.17788306  0.02107679    -0.40100
O358        O  0.99532158  0.13443877  0.02194172    -0.40200
C359        C  0.17917909  0.17519184  0.53059498    -0.12500
C360        C  0.21475464  0.17911679  0.53284550     0.04500
C361        C  0.23033161  0.20348719  0.51034240    -0.07800
C362        C  0.21062307  0.22376927  0.48694687    -0.08500
C363        C  0.17486775  0.22078330  0.48481341    -0.03100
C364        C  0.15911131  0.19576902  0.50696106     0.03800
N365        N  0.12303760  0.19104836  0.50637900     0.66300
H366        H  0.16678692  0.15656372  0.54795313     0.15200
H367        H  0.22396665  0.24212107  0.47010063     0.14900
N368        N  0.26649927  0.20743248  0.51006308     0.74000
O369        O  0.11023788  0.16946924  0.48406140    -0.39500
O370        O  0.10587269  0.20105592  0.53430404    -0.39400
O371        O  0.28361284  0.19201596  0.48533433    -0.40100
O372        O  0.27978942  0.23193766  0.52759805    -0.40200
C373        C  0.11661222  0.18426817  0.27590323    -0.12500
C374        C  0.08272793  0.17257345  0.27366801     0.04500
C375        C  0.06133386  0.17814371  0.30517557    -0.07800
C376        C  0.07276131  0.19775590  0.33578289    -0.08500
C377        C  0.10548386  0.21193798  0.33641433    -0.03100
C378        C  0.12807468  0.20382936  0.30680726     0.03800
N379        N  0.16186897  0.21723135  0.30623404     0.66300
H380        H  0.13378795  0.18003861  0.25253146     0.15200
H381        H  0.05534418  0.20275340  0.35877876     0.14900
N382        N  0.02744846  0.16507870  0.30633490     0.74000
O383        O  0.18568565  0.20229429  0.32329497    -0.39500
O384        O  0.16736267  0.24539091  0.29148378    -0.39400
O385        O  0.02200961  0.13814795  0.32373036    -0.40100
O386        O  0.00272819  0.18412591  0.29877130    -0.40200
C387        C  0.46415116  0.35420166  0.36164112    -0.12500
C388        C  0.47124677  0.38408115  0.34222829     0.04500
C389        C  0.50511242  0.39176826  0.33372544    -0.07800
C390        C  0.03118641  0.37117729  0.34688238    -0.08500
C391        C  0.02471970  0.34348915  0.37045634    -0.03100
C392        C  0.49051221  0.33393146  0.37599668     0.03800
N393        N  0.48195058  0.30525651  0.39786841     0.66300
H394        H  0.43798038  0.34787657  0.36831749     0.15200
H395        H  0.05712796  0.37849057  0.34035614     0.14900
N396        N  0.01368662  0.42089712  0.31268775     0.74000
O397        O  0.47504248  0.30898614  0.43246758    -0.39500
O398        O  0.47307906  0.27854773  0.38100466    -0.39400
O399        O  0.02317594  0.44706178  0.33024289    -0.40100
O400        O  0.02095191  0.41751782  0.27813527    -0.40200
C401        C  0.24684979  0.41883295  0.39541084    -0.12500
C402        C  0.27856928  0.40261799  0.39496010     0.04500
C403        C  0.28170725  0.37171284  0.41470486    -0.07800
C404        C  0.25301567  0.35642730  0.42996353    -0.08500
C405        C  0.22085614  0.37087230  0.42673800    -0.03100
C406        C  0.21815327  0.40345904  0.41148107     0.03800
N407        N  0.18610452  0.42029656  0.40963031     0.66300
H408        H  0.24390133  0.44299577  0.38192501     0.15200
H409        H  0.25550158  0.33146643  0.44171543     0.14900
N410        N  0.31323157  0.35394277  0.41755726     0.74000
O411        O  0.17786722  0.43977080  0.43640069    -0.39500
O412        O  0.17082793  0.42254601  0.37820136    -0.39400
O413        O  0.32767012  0.35176269  0.44947023    -0.40100
O414        O  0.32094175  0.33317825  0.39182971    -0.40200
C415        C  0.19391769  0.35140956  0.24862949    -0.12500
C416        C  0.16590163  0.35897727  0.22508864     0.04500
C417        C  0.13348336  0.36307724  0.24185094    -0.07800
C418        C  0.12940135  0.35692017  0.28054319    -0.08500
C419        C  0.15706808  0.34701314  0.30292915    -0.03100
C420        C  0.18975514  0.34538750  0.28709953     0.03800
N421        N  0.21898604  0.33753183  0.30972413     0.66300
H422        H  0.21935658  0.34915163  0.23706155     0.15200
H423        H  0.10417458  0.35857432  0.29284019     0.14900
N424        N  0.10439749  0.37301533  0.22021895     0.74000
O425        O  0.23023744  0.30791154  0.30965968    -0.39500
O426        O  0.23782666  0.36105195  0.32182887    -0.39400
O427        O  0.08264832  0.35121188  0.21035149    -0.40100
O428        O  0.09630018  0.40361120  0.21958366    -0.40200
C429        C  0.05159839  0.42021932  0.74034171    -0.12500
C430        C  0.01590475  0.42287069  0.74041577     0.04500
C431        C  0.00061218  0.44623125  0.76499298    -0.07800
C432        C  0.02080593  0.46752728  0.78735077    -0.08500
C433        C  0.05670110  0.46648172  0.78624809    -0.03100
C434        C  0.07209367  0.44165972  0.76304180     0.03800
N435        N  0.10825667  0.43821567  0.76146094     0.66300
H436        H  0.56373147  0.40240868  0.72130952     0.15200
H437        H  0.00782288  0.48535220  0.80560757     0.14900
N438        N  0.96437014  0.44846490  0.76784181     0.74000
O439        O  0.62276493  0.41645791  0.78151054    -0.39500
O440        O  0.12420852  0.45088883  0.73423963    -0.39400
O441        O  0.94945056  0.43294381  0.79388024    -0.40100
O442        O  0.94875263  0.47140574  0.75058614    -0.40200
C443        C  0.44044418  0.39347882  0.51592821    -0.12500
C444        C  0.41189569  0.39419271  0.53976774     0.04500
C445        C  0.37923332  0.39904013  0.52353628    -0.07800
C446        C  0.37632646  0.40583305  0.48491738    -0.08500
C447        C  0.40524293  0.40744609  0.46222560    -0.03100
C448        C  0.43752654  0.40091360  0.47766826     0.03800
N449        N  0.46774635  0.40458552  0.45573062     0.66300
H450        H  0.46571572  0.38878635  0.52739835     0.15200
H451        H  0.35141517  0.41130016  0.47285585     0.14900
N452        N  0.34894995  0.39827540  0.54562169     0.74000
O453        O  0.47964241  0.43357316  0.45048361    -0.39500
O454        O  0.48655429  0.37946364  0.44998619    -0.39400
O455        O  0.33640008  0.42554825  0.55724705    -0.40100
O456        O  0.33001350  0.37273905  0.54340303    -0.40200
C457        C  0.37130672  0.97547702  0.61306750    -0.12500
C458        C  0.36941142  0.46356453  0.65027704     0.03700
C459        C  0.34328554  0.47548273  0.67397187    -0.07800
C460        C  0.32159653  0.50112574  0.66111273    -0.08500
C461        C  0.32492967  0.01406827  0.62435098    -0.03100
C462        C  0.34927509  0.00010746  0.59993683     0.03800
N463        N  0.35499202  0.01365871  0.56329926     0.66300
H464        H  0.39057895  0.96599381  0.59389313     0.15200
H465        H  0.30337690  0.51215473  0.68043375     0.14900
N466        N  0.34000342  0.46369374  0.71175087     0.74000
O467        O  0.37956617  0.03362527  0.55911128    -0.39500
O468        O  0.34239747  0.99902186  0.53458573    -0.39400
O469        O  0.35179668  0.48112763  0.73886246    -0.40100
O470        O  0.31917134  0.44041109  0.71845291    -0.40200
C471        C  0.41401470  0.23959120  0.63276873    -0.12500
C472        C  0.40216070  0.27060315  0.61983601     0.04500
C473        C  0.37376409  0.27088475  0.59463539    -0.07800
C474        C  0.35469909  0.24169541  0.58832862    -0.08500
C475        C  0.36517344  0.21119572  0.60336660    -0.03100
C476        C  0.39634973  0.20980944  0.62370423     0.03800
N477        N  0.40989707  0.17858771  0.63631985     0.66300
H478        H  0.43628031  0.23850915  0.65103083     0.15200
H479        H  0.33139393  0.24295115  0.57194928     0.14900
N480        N  0.36310630  0.30090545  0.57625488     0.74000
O481        O  0.42684275  0.16092325  0.61342209    -0.39500
O482        O  0.41316067  0.17345755  0.67132059    -0.39400
O483        O  0.38271464  0.31530240  0.55337894    -0.40100
O484        O  0.33460462  0.31372053  0.58399146    -0.40200
C485        C  0.04682344  0.32051799  0.58436740    -0.12500
C486        C  0.03659696  0.35385740  0.59019085     0.04500
C487        C  0.04837003  0.37843051  0.56465755    -0.07800
C488        C  0.06729456  0.36884610  0.53281799    -0.08500
C489        C  0.07547737  0.33515181  0.52560923    -0.03100
C490        C  0.06628817  0.31105789  0.55295274     0.03800
N491        N  0.07638394  0.27678969  0.54949394     0.66300
H492        H  0.03906993  0.30126797  0.60402809     0.15200
H493        H  0.07439795  0.38799705  0.51274040     0.14900
N494        N  0.04033631  0.41312147  0.56949225     0.74000
O495        O  0.10325647  0.26737066  0.56607120    -0.39500
O496        O  0.05472535  0.25514440  0.53889225    -0.39400
O497        O  0.06218605  0.43234134  0.58468211    -0.40100
O498        O  0.01664260  0.42566786  0.54992710    -0.40200
C499        C  0.35519250  0.29361079  0.80193940    -0.12500
C500        C  0.37796147  0.29051577  0.83259691     0.04500
C501        C  0.40931241  0.30776234  0.83134734    -0.07800
C502        C  0.41871037  0.32484579  0.79846807    -0.08500
C503        C  0.39706516  0.32576186  0.76648464    -0.03100
C504        C  0.36458621  0.31042229  0.76886086     0.03800
N505        N  0.34218879  0.30853490  0.73679239     0.66300
H506        H  0.33096234  0.28053101  0.80230993     0.15200
H507        H  0.44337781  0.33707216  0.79778982     0.14900
N508        N  0.43166442  0.30844592  0.86351129     0.74000
O509        O  0.34558189  0.28486852  0.71311234    -0.39500
O510        O  0.31500051  0.32536690  0.73681417    -0.39400
O511        O  0.45899541  0.29185145  0.86297521    -0.40100
O512        O  0.42213710  0.32221029  0.89396509    -0.40200
O513        O  0.39768520  0.82817190  0.63200685    -0.82000
C514        C  0.99513118  0.90533409  0.71119890     0.97400
O515        O  0.99764500  0.87370836  0.70565481    -0.71100
O516        O  0.44208851  0.83983490  0.72517743    -0.74700
Al517      Al  0.46704828  0.84150521  0.67954311     1.49000
C518        C  0.41029406  0.83966691  0.73036884     0.92600
O519        O  0.38650441  0.91199305  0.67851260    -0.80900
O520        O  0.44830858  0.89842099  0.59263144    -0.74500
Al521      Al  0.39599039  0.86955143  0.65555206     1.90100
O522        O  0.42361871  0.93931899  0.64570151    -0.73600
O523        O  0.00534739  0.89111505  0.63056102    -0.73400
O524        O  0.47580811  0.92303922  0.69073567    -0.79100
O525        O  0.99481916  0.83801295  0.63558055    -0.77300
O526        O  0.44118721  0.87346753  0.65957925    -1.13400
O527        O  0.44161101  0.80382760  0.65785290    -0.72600
C528        C  0.41524224  0.80249283  0.63695002     0.98100
C529        C  0.39485975  0.93792730  0.66100722     0.94500
Al530      Al  0.46147485  0.90998550  0.64190174     1.55600
O531        O  0.39007340  0.84965613  0.70469935    -0.77200
C532        C  0.01138819  0.86136933  0.62057946     0.98700
C533        C  0.41825004  0.89280020  0.58103848     0.93600
O534        O  0.39431921  0.88712395  0.60423330    -0.82500
O535        O  0.08063841  0.84671860  0.39083021    -0.82000
C536        C  0.15639181  0.74405710  0.45862869     0.97400
O537        O  0.12426049  0.74272709  0.45281242    -0.71100
O538        O  0.08957773  0.79506666  0.47804008    -0.74700
Al539      Al  0.09245565  0.77521061  0.42962068     1.49000
C540        C  0.08968002  0.82543212  0.48797156     0.92600
O541        O  0.16322093  0.85601650  0.44175266    -0.80900
O542        O  0.15595629  0.80391799  0.34736996    -0.74500
Al543      Al  0.12131616  0.84724698  0.41635219     1.90100
O544        O  0.19333486  0.82115658  0.40809048    -0.73600
O545        O  0.14424825  0.74405132  0.37500631    -0.73400
O546        O  0.17433570  0.76504030  0.44110681    -0.79100
O547        O  0.09001473  0.75179398  0.38313828    -0.77300
O548        O  0.12569881  0.80267314  0.41400649    -1.13400
O549        O  0.05426717  0.80183647  0.40948378    -0.72600
C550        C  0.05436849  0.82908807  0.39127631     0.98100
C551        C  0.19107678  0.84794776  0.42706474     0.94500
Al552      Al  0.16363902  0.78498502  0.39499852     1.55600
O553        O  0.09972357  0.84777133  0.46530829    -0.77200
C554        C  0.11384649  0.73705715  0.36640621     0.98700
C555        C  0.15087415  0.83460167  0.34112997     0.93600
O556        O  0.14111702  0.85457354  0.36705133    -0.82500
O557        O  0.07943942  0.67732212  0.13617569    -0.82000
C558        C  0.48203819  0.59448058  0.20713786     0.97400
O559        O  0.48051872  0.62644345  0.20580535    -0.71100
O560        O  0.03755389  0.65514147  0.23236293    -0.74700
Al561      Al  0.01323010  0.65994406  0.18627040     1.49000
C562        C  0.06924815  0.65931691  0.23670918     0.92600
O563        O  0.09425084  0.59322158  0.17995482    -0.80900
O564        O  0.03373868  0.60848728  0.09178559    -0.74500
Al565      Al  0.08375768  0.63551739  0.15881199     1.90100
O566        O  0.05765223  0.56474760  0.14521591    -0.73600
O567        O  0.47667495  0.61610038  0.12790223    -0.73400
O568        O  0.50280119  0.57891513  0.18618400    -0.79100
O569        O  0.48679445  0.66854917  0.14179820    -0.77300
O570        O  0.03894468  0.62999879  0.16216361    -1.13400
O571        O  0.04045552  0.69941550  0.17262195    -0.72600
C572        C  0.06426508  0.70260511  0.14879548     0.98100
C573        C  0.08546069  0.56635869  0.16350548     0.94500
Al574      Al  0.01930814  0.59482423  0.13989980     1.55600
O575        O  0.08916946  0.65492093  0.20898197    -0.77200
C576        C  0.47109982  0.64682131  0.12214479     0.98700
C577        C  0.06426852  0.61350924  0.08276984     0.93600
O578        O  0.08714282  0.61827084  0.10777371    -0.82500
O579        O  0.40241498  0.65516351  0.89114410    -0.82000
C580        C  0.32570793  0.76115079  0.95323461     0.97400
O581        O  0.35821046  0.76138718  0.95002001    -0.71100
O582        O  0.39395232  0.70978886  0.97625613    -0.74700
Al583      Al  0.39082100  0.72890270  0.92764006     1.49000
C584        C  0.39370006  0.67969183  0.98672932     0.92600
O585        O  0.31921235  0.65151676  0.94066308    -0.80900
O586        O  0.33230377  0.69781004  0.84349190    -0.74500
Al587      Al  0.36132077  0.65671303  0.91564211     1.90100
O588        O  0.29016954  0.68219703  0.90133235    -0.73600
O589        O  0.33984067  0.75887877  0.87040219    -0.73400
O590        O  0.30783961  0.74016610  0.93453837    -0.79100
O591        O  0.39382099  0.75215581  0.88110227    -0.77300
O592        O  0.35783003  0.70128383  0.91159857    -1.13400
O593        O  0.42861389  0.70146709  0.90777894    -0.72600
C594        C  0.42857724  0.67311661  0.89090767     0.98100
C595        C  0.29186122  0.65768321  0.92345957     0.94500
Al596      Al  0.32071413  0.71827512  0.88968742     1.55600
O597        O  0.38281528  0.65696921  0.96461106    -0.77200
C598        C  0.37019518  0.76636667  0.86330969     0.98700
C599        C  0.33766005  0.66687247  0.83849778     0.93600
O600        O  0.34177272  0.64728379  0.86618231    -0.82500
O601        O  0.15284651  0.59585668  0.87643666    -0.82000
C602        C  0.07600701  0.99127653  0.81044494     0.97400
O603        O  0.10851537  0.99088583  0.81389829    -0.71100
O604        O  0.14359645  0.54357782  0.78851558    -0.74700
Al605      Al  0.14120730  0.52335924  0.83682495     1.49000
C606        C  0.14391562  0.57406571  0.77934510     0.92600
O607        O  0.06925646  0.60120181  0.82625463    -0.80900
O608        O  0.08329347  0.55173292  0.92187048    -0.74500
Al609      Al  0.11177653  0.59508218  0.85130280     1.90100
O610        O  0.04078048  0.56900597  0.86414930    -0.73600
O611        O  0.09098258  0.99179163  0.89216540    -0.73400
O612        O  0.05850691  0.01240831  0.82887121    -0.79100
O613        O  0.14500701  0.99922997  0.88290059    -0.77300
O614        O  0.10833643  0.55046525  0.85361453    -1.13400
O615        O  0.17909721  0.55059639  0.85720738    -0.72600
C616        C  0.17907414  0.57814596  0.87564717     0.98100
C617        C  0.04205763  0.59426499  0.84307684     0.94500
Al618      Al  0.07150324  0.53275177  0.87463671     1.55600
O619        O  0.13332423  0.59614498  0.80236672    -0.77200
C620        C  0.12136615  0.98467696  0.89997765     0.98700
C621        C  0.08786484  0.58266834  0.92783698     0.93600
O622        O  0.09242448  0.60289890  0.90086343    -0.82500
O623        O  0.32885074  0.57177034  0.62962946    -0.82000
C624        C  0.23540488  0.65950476  0.56007931     0.97400
O625        O  0.23145120  0.62796001  0.56266605    -0.71100
O626        O  0.28608857  0.59750508  0.53480526    -0.74700
Al627      Al  0.26260717  0.59337194  0.58111002     1.49000
C628        C  0.31746665  0.59193953  0.52982397     0.92600
O629        O  0.34837780  0.65546321  0.58747779    -0.80900
O630        O  0.28831049  0.64336404  0.67505156    -0.74500
Al631      Al  0.33526647  0.61367622  0.60773566     1.90100
O632        O  0.31333951  0.68579021  0.62143750    -0.73600
O633        O  0.22975594  0.63868085  0.64021984    -0.73400
O634        O  0.25677591  0.67475445  0.58099054    -0.79100
O635        O  0.23676388  0.58590072  0.62580366    -0.77300
O636        O  0.29065900  0.62175842  0.60492766    -1.13400
O637        O  0.28757950  0.55270970  0.59334531    -0.72600
C638        C  0.31197232  0.54774613  0.61621708     0.98100
C639        C  0.34086197  0.68283845  0.60330308     0.94500
Al640      Al  0.27348447  0.65784948  0.62736157     1.55600
O641        O  0.33845975  0.59502671  0.55711503    -0.77200
C642        C  0.22225998  0.60821568  0.64546133     0.98700
C643        C  0.31855801  0.63613029  0.68364408     0.93600
O644        O  0.34061735  0.62990395  0.65868462    -0.82500
O645        O  0.33480490  0.90109746  0.37397116    -0.82000
C646        C  0.40301061  0.50874264  0.30642635     0.97400
O647        O  0.37086472  0.50850178  0.31230360    -0.71100
O648        O  0.33964241  0.95429993  0.28682412    -0.74700
Al649      Al  0.34099485  0.97395654  0.33502475     1.49000
C650        C  0.34073487  0.92411512  0.27646476     0.92600
O651        O  0.41657076  0.90173313  0.32149654    -0.80900
O652        O  0.40372664  0.95062246  0.41832417    -0.74500
Al653      Al  0.37493401  0.90468635  0.34771878     1.90100
O654        O  0.44482630  0.93490140  0.35983529    -0.73600
O655        O  0.38956971  0.50989375  0.39049082    -0.73400
O656        O  0.42281661  0.49027483  0.32532713    -0.79100
O657        O  0.33656332  0.49673157  0.38144552    -0.77300
O658        O  0.37584388  0.94934952  0.35093156    -1.13400
O659        O  0.30554207  0.94426094  0.35504538    -0.72600
C660        C  0.30759021  0.91716782  0.37361564     0.98100
C661        C  0.44365967  0.90906751  0.33885614     0.94500
Al662      Al  0.41219629  0.96982786  0.37129116     1.55600
O663        O  0.35201248  0.90208510  0.29885567    -0.77200
C664        C  0.35854987  0.51374346  0.39879678     0.98700
C665        C  0.40143825  0.91950334  0.42377380     0.93600
O666        O  0.39626572  0.89872054  0.39683851    -0.82500
O667        O  0.14965392  0.92423551  0.13233708    -0.82000
C668        C  0.24566402  0.84719105  0.05236087     0.97400
O669        O  0.24786722  0.87892659  0.05742398    -0.71100
O670        O  0.19071722  0.90877922  0.03675715    -0.74700
Al671      Al  0.21629231  0.91107824  0.08176239     1.49000
C672        C  0.15881927  0.90998855  0.03259036     0.92600
O673        O  0.13740888  0.83986491  0.08638738    -0.80900
O674        O  0.20143335  0.85591732  0.17163206    -0.74500
Al675      Al  0.14701899  0.88267605  0.10891226     1.90100
O676        O  0.17518813  0.81304990  0.11968401    -0.73600
O677        O  0.25661108  0.86467442  0.13155377    -0.73400
O678        O  0.22644539  0.82963750  0.07292912    -0.79100
O679        O  0.24451358  0.91751632  0.12545896    -0.77300
O680        O  0.19184191  0.87925944  0.10377299    -1.13400
O681        O  0.18951205  0.94932914  0.10064488    -0.72600
C682        C  0.16474294  0.95063267  0.12348128     0.98100
C683        C  0.14644446  0.81385283  0.10354614     0.94500
Al684      Al  0.21315464  0.84361755  0.12203656     1.55600
O685        O  0.13923000  0.90221915  0.05952749    -0.77200
C686        C  0.26199485  0.89489476  0.14081883     0.98700
C687        C  0.17153363  0.86068999  0.18358189     0.93600
O688        O  0.14703285  0.86549124  0.16042304    -0.82500
C689        C  0.31580871  0.94182914  0.21471031    -0.12500
C690        C  0.32638391  0.91544314  0.23829127     0.04500
C691        C  0.31922410  0.88222893  0.22641936    -0.07800
C692        C  0.30018833  0.87631829  0.19324161    -0.08500
C693        C  0.28723889  0.90282428  0.17141808    -0.03100
C694        C  0.29616290  0.93599970  0.18201919     0.03800
N695        N  0.28436373  0.96428457  0.16114479     0.66300
H696        H  0.32130270  0.96766859  0.22261581     0.15200
H697        H  0.29395000  0.85054264  0.18576489     0.14900
N698        N  0.32906099  0.85417690  0.24873647     0.74000
O699        O  0.25718099  0.97864436  0.17106506    -0.39500
O700        O  0.30490526  0.97966270  0.14018900    -0.39400
O701        O  0.30721711  0.84029519  0.26940736    -0.40100
O702        O  0.35617819  0.83874619  0.24089445    -0.40200
C703        C  0.30392837  0.56145771  0.47019339    -0.12500
C704        C  0.32858030  0.57768273  0.49279155     0.04500
C705        C  0.36311145  0.57560838  0.48178884    -0.07800
C706        C  0.37230505  0.55530065  0.45069908    -0.08500
C707        C  0.34768327  0.53745665  0.42942266    -0.03100
C708        C  0.31288596  0.54166736  0.43901418     0.03800
N709        N  0.28603826  0.52522932  0.41839853     0.66300
H710        H  0.27720721  0.56268751  0.47773743     0.15200
H711        H  0.39901660  0.55341143  0.44331680     0.14900
N712        N  0.38893724  0.59496608  0.50071642     0.74000
O713        O  0.27464637  0.99758214  0.43012476    -0.39500
O714        O  0.26812298  0.04186486  0.39535490    -0.39400
O715        O  0.41326497  0.58026688  0.51713628    -0.40100
O716        O  0.39206681  0.62557451  0.49272796    -0.40200
C717        C  0.10536416  0.95742495  0.96043359    -0.12500
C718        C  0.12875960  0.96057176  0.93072763     0.04500
C719        C  0.15962493  0.94263731  0.93277110    -0.07800
C720        C  0.16744327  0.92405774  0.96504211    -0.08500
C721        C  0.14537721  0.92317783  0.99619124    -0.03100
C722        C  0.11343080  0.93928876  0.99311527     0.03800
N723        N  0.09005087  0.93993678  0.02389657     0.66300
H724        H  0.08141166  0.97098081  0.95945680     0.15200
H725        H  0.19184690  0.91131264  0.96628746     0.14900
N726        N  0.18350924  0.94314780  0.90251210     0.74000
O727        O  0.09141415  0.96376444  0.04767258    -0.39500
O728        O  0.06390170  0.92149721  0.02243938    -0.39400
O729        O  0.20996395  0.46145529  0.90572891    -0.40100
O730        O  0.18239964  0.92022211  0.87763463    -0.40200
C731        C  0.17207330  0.55807396  0.71827141    -0.12500
C732        C  0.15906463  0.58357430  0.74199185     0.04500
C733        C  0.16402399  0.61728293  0.73093187    -0.07800
C734        C  0.18308615  0.62459121  0.69846047    -0.08500
C735        C  0.19765878  0.59907614  0.67600959    -0.03100
C736        C  0.19097774  0.56540355  0.68578920     0.03800
N737        N  0.20449208  0.53814654  0.66410065     0.66300
H738        H  0.16858453  0.53197264  0.72555246     0.15200
H739        H  0.18745168  0.65066414  0.69161257     0.14900
N740        N  0.15105635  0.64462921  0.75290526     0.74000
O741        O  0.18980293  0.52882209  0.63386356    -0.39500
O742        O  0.23234045  0.52486694  0.67379922    -0.39400
O743        O  0.17088771  0.66058755  0.77491083    -0.40100
O744        O  0.12278115  0.65740638  0.74389043    -0.40200
C745        C  0.27124887  0.78796063  0.97314219    -0.12500
C746        C  0.30693839  0.78601378  0.97758633     0.04500
C747        C  0.32264237  0.80773455  0.00458702    -0.07800
C748        C  0.30248282  0.82918811  0.02726828    -0.08500
C749        C  0.26678107  0.82959149  0.02365068    -0.03100
C750        C  0.25136972  0.80922135  0.99562470     0.03800
N751        N  0.21537927  0.81005639  0.98933104     0.66300
H752        H  0.25820555  0.77258153  0.95199522     0.15200
H753        H  0.31472546  0.84455185  0.04902585     0.14900
N754        N  0.35867712  0.80753732  0.01047079     0.74000
O755        O  0.20330095  0.83011721  0.96533926    -0.39500
O756        O  0.19729265  0.78592797  0.00033903    -0.39400
O757        O  0.37647796  0.83084221  0.99696594    -0.40100
O758        O  0.37125070  0.78917921  0.03585887    -0.40200
C759        C  0.31767349  0.62659532  0.78902931    -0.12500
C760        C  0.33833065  0.65383255  0.79970440     0.04500
C761        C  0.35671040  0.67120945  0.77185163    -0.07800
C762        C  0.35093613  0.66365556  0.73407195    -0.08500
C763        C  0.32873456  0.63823870  0.72314689    -0.03100
C764        C  0.31293398  0.61844318  0.75076939     0.03800
N765        N  0.29193401  0.59062395  0.73987389     0.66300
H766        H  0.30381329  0.61247570  0.81059863     0.15200
H767        H  0.36303080  0.67974644  0.71211672     0.14900
N768        N  0.38081041  0.69670075  0.78179836     0.74000
O769        O  0.30553609  0.56434988  0.72681386    -0.39500
O770        O  0.26007595  0.59423889  0.73740881    -0.39400
O771        O  0.41153761  0.68855354  0.78694161    -0.40100
O772        O  0.37384333  0.72676509  0.77434155    -0.40200
C773        C  0.20385770  0.62079553  0.91961234    -0.12500
C774        C  0.20933063  0.59244250  0.89603792     0.04500
C775        C  0.24318531  0.58217563  0.88969636    -0.07800
C776        C  0.27023945  0.60228867  0.90311442    -0.08500
C777        C  0.26418970  0.63274793  0.92232696    -0.03100
C778        C  0.23070110  0.64131527  0.93183405     0.03800
N779        N  0.22331469  0.67169182  0.95196323     0.66300
H780        H  0.17817580  0.62873328  0.92654203     0.15200
H781        H  0.29612496  0.59547830  0.89555973     0.14900
N782        N  0.25065769  0.55298697  0.86758876     0.74000
O783        O  0.21551478  0.69759591  0.93363380    -0.39500
O784        O  0.21617903  0.67034523  0.98667027    -0.39400
O785        O  0.25839104  0.55617428  0.83322409    -0.40100
O786        O  0.25772244  0.52599671  0.88420543    -0.40200
C787        C  0.45304479  0.62838032  0.84988271    -0.12500
C788        C  0.45864956  0.65825147  0.87101264     0.04500
C789        C  0.49249446  0.66989522  0.87505824    -0.07800
C790        C  0.01957422  0.65008415  0.86147518    -0.08500
C791        C  0.01363922  0.61847622  0.84448722    -0.03100
C792        C  0.47992145  0.60818886  0.83771905     0.03800
N793        N  0.47242707  0.57631768  0.82066716     0.66300
H794        H  0.42738869  0.61909602  0.84481365     0.15200
H795        H  0.04554700  0.65818509  0.86719004     0.14900
N796        N  0.00010436  0.70040451  0.89487787     0.74000
O797        O  0.46772992  0.55131286  0.84159606    -0.39500
O798        O  0.46200006  0.57513734  0.78679958    -0.39400
O799        O  0.01061386  0.69921115  0.92868312    -0.40100
O800        O  0.00444777  0.72689083  0.87629551    -0.40200
C801        C  0.41431664  0.56580846  0.27911989    -0.12500
C802        C  0.41884416  0.53087268  0.27778060     0.04500
C803        C  0.44276022  0.51753281  0.25224009    -0.07800
C804        C  0.46242278  0.53876358  0.22997317    -0.08500
C805        C  0.45916370  0.57391161  0.23188563    -0.03100
C806        C  0.43411629  0.58735429  0.25649934     0.03800
N807        N  0.42873152  0.62265567  0.25953343     0.66300
H808        H  0.39626030  0.57656432  0.29889470     0.15200
H809        H  0.48073140  0.52721470  0.21107743     0.14900
N810        N  0.44788292  0.98214644  0.24880716     0.74000
O811        O  0.40530045  0.63590897  0.24017572    -0.39500
O812        O  0.44105550  0.63851054  0.28756000    -0.39400
O813        O  0.43284755  0.96618451  0.22252912    -0.40100
O814        O  0.47307366  0.96896579  0.26520302    -0.40200
C815        C  0.42616245  0.69670773  0.04477990    -0.12500
C816        C  0.40871607  0.67133753  0.02449403     0.04500
C817        C  0.40920066  0.63845050  0.03920169    -0.07800
C818        C  0.42813575  0.63156985  0.07210408    -0.08500
C819        C  0.44720633  0.65664246  0.09106704    -0.03100
C820        C  0.44542263  0.68976661  0.07729507     0.03800
N821        N  0.46461959  0.71646444  0.09437205     0.66300
H822        H  0.42637579  0.72221998  0.03436089     0.15200
H823        H  0.42877688  0.60592940  0.08209533     0.14900
N824        N  0.39137376  0.61147409  0.02083677     0.74000
O825        O  0.99363878  0.72348836  0.08159249    -0.39500
O826        O  0.44959137  0.73758546  0.11514451    -0.39400
O827        O  0.40768907  0.59097247  0.00047682    -0.40100
O828        O  0.36204591  0.60361352  0.03214901    -0.40200
C829        C  0.08498139  0.73969346  0.09789301    -0.12500
C830        C  0.07730979  0.73556228  0.13646306     0.04500
C831        C  0.09032127  0.75902979  0.16293780    -0.07800
C832        C  0.11240965  0.78433378  0.15097209    -0.08500
C833        C  0.12124806  0.78759400  0.11275423    -0.03100
C834        C  0.10635735  0.76574126  0.08579764     0.03800
N835        N  0.11459979  0.76800462  0.04664114     0.66300
H836        H  0.07568070  0.72146194  0.07720016     0.15200
H837        H  0.12341262  0.80125340  0.17205546     0.14900
N838        N  0.08383588  0.75586330  0.20244170     0.74000
O839        O  0.13738034  0.74913507  0.03322869    -0.39500
O840        O  0.09391167  0.78205112  0.02438835    -0.39400
O841        O  0.10715920  0.74518657  0.22389727    -0.40100
O842        O  0.05911354  0.77157829  0.21669896    -0.40200
C843        C  0.12357477  0.97964912  0.16561932    -0.12500
C844        C  0.15028207  0.98250062  0.13924395     0.04500
C845        C  0.15844280  0.51474722  0.12573049    -0.07800
C846        C  0.13830396  0.54235683  0.13660771    -0.08500
C847        C  0.10990967  0.53840993  0.16021195    -0.03100
C848        C  0.10303926  0.00689628  0.17542884     0.03800
N849        N  0.07459406  0.00163145  0.19963552     0.66300
H850        H  0.11695032  0.95546101  0.17723078     0.15200
H851        H  0.14364499  0.56675338  0.12463000     0.14900
N852        N  0.18549274  0.51980734  0.09962355     0.74000
O853        O  0.04663463  0.99200694  0.18531969    -0.39500
O854        O  0.08016131  0.49785352  0.23477610    -0.39400
O855        O  0.17858318  0.52310080  0.06492357    -0.40100
O856        O  0.21434506  0.52891679  0.11199820    -0.40200
C857        C  0.10113058  0.59044897  0.03305565    -0.12500
C858        C  0.07358646  0.61092825  0.04280914     0.04500
C859        C  0.05338727  0.62535606  0.01403678    -0.07800
C860        C  0.06010055  0.61776610  0.97614301    -0.08500
C861        C  0.08598766  0.59523390  0.96670407    -0.03100
C862        C  0.10714094  0.58206593  0.99527622     0.03800
N863        N  0.13411256  0.55937130  0.98641057     0.66300
H864        H  0.11677528  0.57919983  0.05499336     0.15200
H865        H  0.04373843  0.62792780  0.95415097     0.14900
N866        N  0.02543644  0.64688748  0.02282808     0.74000
O867        O  0.16394025  0.57061700  0.98261667    -0.39500
O868        O  0.12977458  0.52837197  0.99131140    -0.39400
O869        O  0.02957071  0.67823559  0.02144506    -0.40100
O870        O  0.99561045  0.63505028  0.02196198    -0.40200
C871        C  0.17918380  0.67513950  0.53052806    -0.12500
C872        C  0.21474684  0.67914976  0.53286756     0.04500
C873        C  0.23029630  0.70361543  0.51046659    -0.07800
C874        C  0.21057367  0.72388863  0.48707286    -0.08500
C875        C  0.17483148  0.72080679  0.48484649    -0.03100
C876        C  0.15910228  0.69571442  0.50690560     0.03800
N877        N  0.12303920  0.69091455  0.50624684     0.66300
H878        H  0.16680827  0.65644594  0.54781213     0.15200
H879        H  0.22389493  0.74231291  0.47030447     0.14900
N880        N  0.26645154  0.70768032  0.51029746     0.74000
O881        O  0.11032004  0.66932758  0.48388230    -0.39500
O882        O  0.10579990  0.70088519  0.53413149    -0.39400
O883        O  0.28366730  0.69239813  0.48555257    -0.40100
O884        O  0.27961650  0.73219009  0.52794134    -0.40200
C885        C  0.11658954  0.68467427  0.27560662    -0.12500
C886        C  0.08280258  0.67269182  0.27351358     0.04500
C887        C  0.06147787  0.67802986  0.30512696    -0.07800
C888        C  0.07288516  0.69760076  0.33577538    -0.08500
C889        C  0.10551594  0.71198044  0.33633273    -0.03100
C890        C  0.12803778  0.70417170  0.30656376     0.03800
N891        N  0.16172606  0.71782205  0.30589474     0.66300
H892        H  0.13369005  0.68069076  0.25211447     0.15200
H893        H  0.05551881  0.70241316  0.35886723     0.14900
N894        N  0.02766035  0.66480447  0.30633765     0.74000
O895        O  0.18572007  0.70301173  0.32279238    -0.39500
O896        O  0.16697712  0.74600589  0.29109644    -0.39400
O897        O  0.02237713  0.63784012  0.32372660    -0.40100
O898        O  0.00284251  0.68375714  0.29886528    -0.40200
C899        C  0.46386834  0.85417354  0.36210288    -0.12500
C900        C  0.47097199  0.88388032  0.34236389     0.04500
C901        C  0.50481646  0.89135349  0.33353303    -0.07800
C902        C  0.03087855  0.87074174  0.34667042    -0.08500
C903        C  0.02443742  0.84324851  0.37053386    -0.03100
C904        C  0.49022531  0.83389106  0.37644406     0.03800
N905        N  0.48167518  0.80545215  0.39870520     0.66300
H906        H  0.43771286  0.84800829  0.36903273     0.15200
H907        H  0.05681561  0.87789462  0.33989908     0.14900
N908        N  0.01338892  0.92030620  0.31218846     0.74000
O909        O  0.47506164  0.80951129  0.43333507    -0.39500
O910        O  0.47252066  0.77865718  0.38221072    -0.39400
O911        O  0.02315111  0.94652362  0.32945414    -0.40100
O912        O  0.02037604  0.91667340  0.27759205    -0.40200
C913        C  0.24658645  0.91889364  0.39522859    -0.12500
C914        C  0.27833108  0.90272233  0.39495393     0.04500
C915        C  0.28146326  0.87189669  0.41486040    -0.07800
C916        C  0.25275397  0.85663153  0.43010541    -0.08500
C917        C  0.22058236  0.87101533  0.42670262    -0.03100
C918        C  0.21787018  0.90353885  0.41127997     0.03800
N919        N  0.18579887  0.92031931  0.40924032     0.66300
H920        H  0.24363707  0.94300039  0.38161746     0.15200
H921        H  0.25524360  0.83171865  0.44198320     0.14900
N922        N  0.31300204  0.85417273  0.41789341     0.74000
O923        O  0.17745061  0.93986748  0.43589847    -0.39500
O924        O  0.17061488  0.92244577  0.37774414    -0.39400
O925        O  0.32726817  0.85197846  0.44989925    -0.40100
O926        O  0.32084884  0.83341043  0.39221649    -0.40200
C927        C  0.19373233  0.85084777  0.24848949    -0.12500
C928        C  0.16577375  0.85879853  0.22503610     0.04500
C929        C  0.13343989  0.86326945  0.24188685    -0.07800
C930        C  0.12936761  0.85716417  0.28059239    -0.08500
C931        C  0.15695053  0.84689770  0.30289233    -0.03100
C932        C  0.18957350  0.84484421  0.28695848     0.03800
N933        N  0.21874304  0.83655723  0.30947807     0.66300
H934        H  0.21911577  0.84827091  0.23685261     0.15200
H935        H  0.10418955  0.85912326  0.29296108     0.14900
N936        N  0.10442633  0.87353683  0.22033684     0.74000
O937        O  0.22962364  0.80680162  0.30925190    -0.39500
O938        O  0.23788485  0.85980577  0.32167230    -0.39400
O939        O  0.08241904  0.85197056  0.21051457    -0.40100
O940        O  0.09662988  0.90421049  0.21982802    -0.40200
C941        C  0.05161998  0.92009073  0.74047930    -0.12500
C942        C  0.01593460  0.92285592  0.74044079     0.04500
C943        C  0.00066150  0.94634352  0.76488135    -0.07800
C944        C  0.02087134  0.96764747  0.78720695    -0.08500
C945        C  0.05676417  0.96648412  0.78621239    -0.03100
C946        C  0.07213167  0.94153899  0.76315181     0.03800
N947        N  0.10828735  0.93796929  0.76169823     0.66300
H948        H  0.56373931  0.90217147  0.72156369     0.15200
H949        H  0.00790260  0.98557290  0.80535153     0.14900
N950        N  0.96441993  0.94870695  0.76761648     0.74000
O951        O  0.62266536  0.91622561  0.78191125    -0.39500
O952        O  0.12435098  0.95048919  0.73446707    -0.39400
O953        O  0.94938726  0.93333619  0.79368834    -0.40100
O954        O  0.94892031  0.97163197  0.75020513    -0.40200
C955        C  0.44046857  0.89379873  0.51593755    -0.12500
C956        C  0.41192742  0.89433719  0.53979472     0.04500
C957        C  0.37923724  0.89910271  0.52359583    -0.07800
C958        C  0.37627545  0.90588882  0.48498087    -0.08500
C959        C  0.40516510  0.90760590  0.46226254    -0.03100
C960        C  0.43749354  0.90125723  0.47768929     0.03800
N961        N  0.46768385  0.90515932  0.45575158     0.66300
H962        H  0.46577253  0.88922508  0.52738302     0.15200
H963        H  0.35133723  0.91128172  0.47294550     0.14900
N964        N  0.34897672  0.89828421  0.54571650     0.74000
O965        O  0.47938026  0.93423316  0.45055328    -0.39500
O966        O  0.48665545  0.88016996  0.44993761    -0.39400
O967        O  0.33637478  0.92553745  0.55733191    -0.40100
O968        O  0.33009986  0.87270302  0.54354786    -0.40200
C969        C  0.37114499  0.47541712  0.61308447    -0.12500
C970        C  0.36948937  0.96358433  0.65023990     0.03700
C971        C  0.34328691  0.97545450  0.67386247    -0.07800
C972        C  0.32160659  0.00109217  0.66096685    -0.08500
C973        C  0.32483060  0.51405844  0.62446561    -0.03100
C974        C  0.34910153  0.50005317  0.59999061     0.03800
N975        N  0.35476909  0.51359270  0.56333843     0.66300
H976        H  0.39037057  0.46590561  0.59386840     0.15200
H977        H  0.30331491  0.01207562  0.68023513     0.14900
N978        N  0.33990015  0.96360724  0.71160514     0.74000
O979        O  0.37938273  0.53350011  0.55908813    -0.39500
O980        O  0.34208131  0.49898558  0.53465628    -0.39400
O981        O  0.35158834  0.98101550  0.73879309    -0.40100
O982        O  0.31907549  0.94028835  0.71818287    -0.40200
C983        C  0.41398824  0.73958989  0.63286191    -0.12500
C984        C  0.40212476  0.77059583  0.61991904     0.04500
C985        C  0.37370526  0.77086478  0.59474923    -0.07800
C986        C  0.35464779  0.74166796  0.58846416    -0.08500
C987        C  0.36513550  0.71117577  0.60350910    -0.03100
C988        C  0.39631784  0.70980304  0.62383503     0.03800
N989        N  0.40985678  0.67859349  0.63649817     0.66300
H990        H  0.43626325  0.73851716  0.65110963     0.15200
H991        H  0.33133610  0.74291292  0.57210101     0.14900
N992        N  0.36300799  0.80088019  0.57638575     0.74000
O993        O  0.42684745  0.66092339  0.61364781    -0.39500
O994        O  0.41306371  0.67348397  0.67150899    -0.39400
O995        O  0.38256742  0.81527213  0.55345449    -0.40100
O996        O  0.33451678  0.81368969  0.58418203    -0.40200
C997        C  0.04673616  0.82040959  0.58436852    -0.12500
C998        C  0.03660249  0.85376964  0.59024763     0.04500
C999        C  0.04843940  0.87834564  0.56475645    -0.07800
C1000       C  0.06731457  0.86875095  0.53288836    -0.08500
C1001       C  0.07539039  0.83504269  0.52561433    -0.03100
C1002       C  0.06615690  0.81093629  0.55292723     0.03800
N1003       N  0.07616071  0.77664442  0.54941156     0.66300
H1004       H  0.03893672  0.80115453  0.60400064     0.15200
H1005       H  0.07446928  0.88791170  0.51284505     0.14900
N1006       N  0.04052500  0.91305545  0.56966702     0.74000
O1007       O  0.10299131  0.76712820  0.56599976    -0.39500
O1008       O  0.05445636  0.75507108  0.53873539    -0.39400
O1009       O  0.06243397  0.93217425  0.58491487    -0.40100
O1010       O  0.01688592  0.92571726  0.55011736    -0.40200
C1011       C  0.35518188  0.79365586  0.80200683    -0.12500
C1012       C  0.37796218  0.79053553  0.83265438     0.04500
C1013       C  0.40935789  0.80770119  0.83135151    -0.07800
C1014       C  0.41874565  0.82478576  0.79846970    -0.08500
C1015       C  0.39707391  0.82574892  0.76651024    -0.03100
C1016       C  0.36458594  0.81043288  0.76890614     0.03800
N1017       N  0.34220078  0.80850875  0.73682886     0.66300
H1018       H  0.33093252  0.78061131  0.80239932     0.15200
H1019       H  0.44343676  0.83696431  0.79776612     0.14900
N1020       N  0.43178985  0.80827321  0.86344734     0.74000
O1021       O  0.34565730  0.78486046  0.71313751    -0.39500
O1022       O  0.31497641  0.82528400  0.73684194    -0.39400
O1023       O  0.45905120  0.79157129  0.86280771    -0.40100
O1024       O  0.42240366  0.82206619  0.89394004    -0.40200
O1025       O  0.89765487  0.32816310  0.63201532    -0.82000
C1026       C  0.49510623  0.40535532  0.71116561     0.97400
O1027       O  0.49762533  0.37373140  0.70561288    -0.71100
O1028       O  0.94207842  0.33981974  0.72514168    -0.74700
Al1029     Al  0.96703895  0.34152797  0.67949799     1.49000
C1030       C  0.91028481  0.33967367  0.73034829     0.92600
O1031       O  0.88646227  0.41198220  0.67850777    -0.80900
O1032       O  0.94824655  0.39842979  0.59261013    -0.74500
Al1033     Al  0.89595658  0.36954671  0.65554485     1.90100
O1034       O  0.92354214  0.43932775  0.64567320    -0.73600
O1035       O  0.50531278  0.39116784  0.63050831    -0.73400
O1036       O  0.97575557  0.42307589  0.69071312    -0.79100
O1037       O  0.49482682  0.33805799  0.63552147    -0.77300
O1038       O  0.94115415  0.37348131  0.65955359    -1.13400
O1039       O  0.94162994  0.30384078  0.65778491    -0.72600
C1040       C  0.91524391  0.30249794  0.63690986     0.98100
C1041       C  0.89479639  0.43792210  0.66100551     0.94500
Al1042     Al  0.96141593  0.41001372  0.64187331     1.55600
O1043       O  0.89006128  0.34967073  0.70468985    -0.77200
C1044       C  0.51137351  0.36142865  0.62051675     0.98700
C1045       C  0.91819705  0.39275490  0.58101935     0.93600
O1046       O  0.89426404  0.38709924  0.60421769    -0.82500
O1047       O  0.58089756  0.34686024  0.39087377    -0.82000
C1048       C  0.65644730  0.24404625  0.45859702     0.97400
O1049       O  0.62430551  0.24278455  0.45282639    -0.71100
O1050       O  0.58964570  0.29515766  0.47802094    -0.74700
Al1051     Al  0.59255051  0.27529609  0.42959756     1.49000
C1052       C  0.58980762  0.32551642  0.48797685     0.92600
O1053       O  0.66348517  0.35592921  0.44184112    -0.80900
O1054       O  0.65606857  0.30395600  0.34733512    -0.74500
Al1055     Al  0.62156440  0.34728940  0.41641058     1.90100
O1056       O  0.69351178  0.32107980  0.40806673    -0.73600
O1057       O  0.64429776  0.24406401  0.37495169    -0.73400
O1058       O  0.67442522  0.26497542  0.44103505    -0.79100
O1059       O  0.59008620  0.25185557  0.38313357    -0.77300
O1060       O  0.62584741  0.30270583  0.41400569    -1.13400
O1061       O  0.55443633  0.30198002  0.40938877    -0.72600
C1062       C  0.55460540  0.32925655  0.39122586     0.98100
C1063       C  0.69131768  0.34783985  0.42710913     0.94500
Al1064     Al  0.66374770  0.28496661  0.39495425     1.55600
O1065       O  0.59994400  0.34783965  0.46534943    -0.77200
C1066       C  0.61388612  0.23707001  0.36640544     0.98700
C1067       C  0.65106187  0.33466494  0.34115665     0.93600
O1068       O  0.64139723  0.35462834  0.36712900    -0.82500
O1069       O  0.57928941  0.17752928  0.13622001    -0.82000
C1070       C  0.98195142  0.09450908  0.20716646     0.97400
O1071       O  0.98039845  0.12646780  0.20583673    -0.71100
O1072       O  0.53749699  0.15508730  0.23245768    -0.74700
Al1073     Al  0.51316582  0.15999006  0.18637800     1.49000
C1074       C  0.56919146  0.15929411  0.23679845     0.92600
O1075       O  0.59427427  0.09339096  0.17988719    -0.80900
O1076       O  0.53366067  0.10855575  0.09182259    -0.74500
Al1077     Al  0.58368960  0.13568433  0.15880941     1.90100
O1078       O  0.55762312  0.06486647  0.14526540    -0.73600
O1079       O  0.97661670  0.11619130  0.12799151    -0.73400
O1080       O  0.00277034  0.07897986  0.18625347    -0.79100
O1081       O  0.98674615  0.16864421  0.14190746    -0.77300
O1082       O  0.53889145  0.13009486  0.16220865    -1.13400
O1083       O  0.54039244  0.19949892  0.17287178    -0.72600
C1084       C  0.56416657  0.20277180  0.14902100     0.98100
C1085       C  0.58545275  0.06650617  0.16350904     0.94500
Al1086     Al  0.51926849  0.09491164  0.13995129     1.55600
O1087       O  0.58910252  0.15502358  0.20903070    -0.77200
C1088       C  0.97108073  0.14691751  0.12221374     0.98700
C1089       C  0.56417310  0.11361013  0.08276966     0.93600
O1090       O  0.58705227  0.11847564  0.10774593    -0.82500
O1091       O  0.90270707  0.15513533  0.89103725    -0.82000
C1092       C  0.82577143  0.26094994  0.95313392     0.97400
O1093       O  0.85827089  0.26127933  0.94989092    -0.71100
O1094       O  0.89412029  0.20974603  0.97610884    -0.74700
Al1095     Al  0.89095148  0.22885626  0.92750441     1.49000
C1096       C  0.89390375  0.17965698  0.98660752     0.92600
O1097       O  0.81950096  0.15129532  0.94050835    -0.80900
O1098       O  0.83249667  0.19765044  0.84336389    -0.74500
Al1099     Al  0.86160461  0.15659681  0.91551125     1.90100
O1100       O  0.79040413  0.18194143  0.90119327    -0.73600
O1101       O  0.83990300  0.25873179  0.87029067    -0.73400
O1102       O  0.80796265  0.23992533  0.93442285    -0.79100
O1103       O  0.89389986  0.25212212  0.88097989    -0.77300
O1104       O  0.85802124  0.20116336  0.91146538    -1.13400
O1105       O  0.92880365  0.20150409  0.90763436    -0.72600
C1106       C  0.92882317  0.17315054  0.89077149     0.98100
C1107       C  0.79213820  0.15742818  0.92331535     0.94500
Al1108     Al  0.82087127  0.21808053  0.88956194     1.55600
O1109       O  0.88307116  0.15689988  0.96450152    -0.77200
C1110       C  0.87023936  0.26629932  0.86321231     0.98700
C1111       C  0.83792016  0.16672582  0.83835848     0.93600
O1112       O  0.84209621  0.14713747  0.86603440    -0.82500
O1113       O  0.65302878  0.09567896  0.87663229    -0.82000
C1114       C  0.57592629  0.49127455  0.81049971     0.97400
O1115       O  0.60844151  0.49093613  0.81392054    -0.71100
O1116       O  0.64365208  0.04353398  0.78848755    -0.74700
Al1117     Al  0.64130316  0.02329295  0.83679038     1.49000
C1118       C  0.64409047  0.07404315  0.77940342     0.92600
O1119       O  0.56954600  0.10126122  0.82627001    -0.80900
O1120       O  0.58333526  0.05166758  0.92185181    -0.74500
Al1121     Al  0.61200392  0.09503428  0.85139966     1.90100
O1122       O  0.54094012  0.06905779  0.86404565    -0.73600
O1123       O  0.59092640  0.49181945  0.89226104    -0.73400
O1124       O  0.55839764  0.51235546  0.82896975    -0.79100
O1125       O  0.64492516  0.49930505  0.88294730    -0.77300
O1126       O  0.60847029  0.05042631  0.85361574    -1.13400
O1127       O  0.67924351  0.05048942  0.85713283    -0.72600
C1128       C  0.67925444  0.07797067  0.87570425     0.98100
C1129       C  0.54230119  0.09433705  0.84300722     0.94500
Al1130     Al  0.57158991  0.03274889  0.87456353     1.55600
O1131       O  0.63363130  0.09611820  0.80250806    -0.77200
C1132       C  0.62131869  0.48471281  0.90003312     0.98700
C1133       C  0.58792592  0.08259211  0.92786300     0.93600
O1134       O  0.59257516  0.10283482  0.90092283    -0.82500
O1135       O  0.82897273  0.07177984  0.62943800    -0.82000
C1136       C  0.73540251  0.15948469  0.56006874     0.97400
O1137       O  0.73144583  0.12794145  0.56266998    -0.71100
O1138       O  0.78603173  0.09746659  0.53473512    -0.74700
Al1139     Al  0.76261664  0.09335741  0.58108299     1.49000
C1140       C  0.81740952  0.09195010  0.52969076     0.92600
O1141       O  0.84837037  0.15550346  0.58729818    -0.80900
O1142       O  0.78842368  0.14334357  0.67496847    -0.74500
Al1143     Al  0.83531355  0.11369998  0.60756151     1.90100
O1144       O  0.81338213  0.18579643  0.62135230    -0.73600
O1145       O  0.72982394  0.13868397  0.64021208    -0.73400
O1146       O  0.75678550  0.17474427  0.58095738    -0.79100
O1147       O  0.73682730  0.08590130  0.62581806    -0.77300
O1148       O  0.79069659  0.12175586  0.60484136    -1.13400
O1149       O  0.78760171  0.05270351  0.59330449    -0.72600
C1150       C  0.81205315  0.04775184  0.61610083     0.98100
C1151       C  0.84087879  0.18286369  0.60316935     0.94500
Al1152     Al  0.77354120  0.15784352  0.62730604     1.55600
O1153       O  0.83844415  0.09507433  0.55693476    -0.77200
C1154       C  0.72232825  0.10822274  0.64546914     0.98700
C1155       C  0.81868340  0.13610623  0.68350831     0.93600
O1156       O  0.84071702  0.12990616  0.65851130    -0.82500
O1157       O  0.83501654  0.40103696  0.37389132    -0.82000
C1158       C  0.90287458  0.00865043  0.30628685     0.97400
O1159       O  0.87073307  0.00845043  0.31219624    -0.71100
O1160       O  0.83972720  0.45436831  0.28687030    -0.74700
Al1161     Al  0.84112068  0.47397933  0.33511777     1.49000
C1162       C  0.84088908  0.42419814  0.27645984     0.92600
O1163       O  0.91679095  0.40186241  0.32143816    -0.80900
O1164       O  0.90386038  0.45055182  0.41837792    -0.74500
Al1165     Al  0.87514773  0.40471881  0.34765910     1.90100
O1166       O  0.94499251  0.43500098  0.35985952    -0.73600
O1167       O  0.88943294  0.00991638  0.39031349    -0.73400
O1168       O  0.92266381  0.99015546  0.32517443    -0.79100
O1169       O  0.83641929  0.99673286  0.38133644    -0.77300
O1170       O  0.87600094  0.44938128  0.35097110    -1.13400
O1171       O  0.80571592  0.44423938  0.35513829    -0.72600
C1172       C  0.80779639  0.41710213  0.37362178     0.98100
C1173       C  0.94386887  0.40921211  0.33881119     0.94500
Al1174     Al  0.91233065  0.46986082  0.37138761     1.55600
O1175       O  0.85224066  0.40217005  0.29880301    -0.77200
C1176       C  0.85841545  0.01376346  0.39864702     0.98700
C1177       C  0.90159297  0.41941770  0.42375351     0.93600
O1178       O  0.89648207  0.39868018  0.39676197    -0.82500
O1179       O  0.64978188  0.42421283  0.13221381    -0.82000
C1180       C  0.74574865  0.34701105  0.05240527     0.97400
O1181       O  0.74800130  0.37876192  0.05737333    -0.71100
O1182       O  0.69085864  0.40867786  0.03669031    -0.74700
Al1183     Al  0.71646221  0.41100281  0.08169360     1.49000
C1184       C  0.65895872  0.40987657  0.03252165     0.92600
O1185       O  0.63760334  0.33976371  0.08643069    -0.80900
O1186       O  0.70161312  0.35607089  0.17170933    -0.74500
Al1187     Al  0.64717766  0.38262358  0.10888128     1.90100
O1188       O  0.67534548  0.31308069  0.11990645    -0.73600
O1189       O  0.75679736  0.36467655  0.13156128    -0.73400
O1190       O  0.72656053  0.32953426  0.07308928    -0.79100
O1191       O  0.74472723  0.41750669  0.12537057    -0.77300
O1192       O  0.69200726  0.37922820  0.10377319    -1.13400
O1193       O  0.68969363  0.44928182  0.10056353    -0.72600
C1194       C  0.66490038  0.45059789  0.12337497     0.98100
C1195       C  0.64660769  0.31382180  0.10374351     0.94500
Al1196     Al  0.71331782  0.34363393  0.12214556     1.55600
O1197       O  0.63938069  0.40209616  0.05946306    -0.77200
C1198       C  0.76220207  0.39490370  0.14077318     0.98700
C1199       C  0.67169729  0.36081038  0.18363127     0.93600
O1200       O  0.64719485  0.36551669  0.16044164    -0.82500
C1201       C  0.81606515  0.44187899  0.21462280    -0.12500
C1202       C  0.82654651  0.41551393  0.23828308     0.04500
C1203       C  0.81931369  0.38229518  0.22648154    -0.07800
C1204       C  0.80029900  0.37636396  0.19329521    -0.08500
C1205       C  0.78744572  0.40285258  0.17137760    -0.03100
C1206       C  0.79645466  0.43602739  0.18190023     0.03800
N1207       N  0.78481791  0.46428997  0.16087943     0.66300
H1208       H  0.82162814  0.46771646  0.22247550     0.15200
H1209       H  0.79399542  0.35058865  0.18588735     0.14900
N1210       N  0.82903143  0.35426389  0.24889492     0.74000
O1211       O  0.75770816  0.47883052  0.17071220    -0.39500
O1212       O  0.80545888  0.47948303  0.13987191    -0.39400
O1213       O  0.80713739  0.34054529  0.26963869    -0.40100
O1214       O  0.85607910  0.33869490  0.24110303    -0.40200
C1215       C  0.80382417  0.06145242  0.47008610    -0.12500
C1216       C  0.82848629  0.07770974  0.49263943     0.04500
C1217       C  0.86300471  0.07567526  0.48158163    -0.07800
C1218       C  0.87218364  0.05537348  0.45048379    -0.08500
C1219       C  0.84755790  0.03748885  0.42926056    -0.03100
C1220       C  0.81276629  0.04165913  0.43890490     0.03800
N1221       N  0.78591328  0.02516162  0.41835718     0.66300
H1222       H  0.77711214  0.06265036  0.47767496     0.15200
H1223       H  0.89888783  0.05351308  0.44306052     0.14900
N1224       N  0.88883221  0.09505900  0.50046966     0.74000
O1225       O  0.77471947  0.49759133  0.43022398    -0.39500
O1226       O  0.76827510  0.54188324  0.39545135    -0.39400
O1227       O  0.91316933  0.08038197  0.51689742    -0.40100
O1228       O  0.89195296  0.12565819  0.49243443    -0.40200
C1229       C  0.60535039  0.45721138  0.96038153    -0.12500
C1230       C  0.62877480  0.46055877  0.93073212     0.04500
C1231       C  0.65972376  0.44275938  0.93277929    -0.07800
C1232       C  0.66760005  0.42415322  0.96501776    -0.08500
C1233       C  0.64549583  0.42308268  0.99612495    -0.03100
C1234       C  0.61345819  0.43901998  0.99301750     0.03800
N1235       N  0.58998338  0.43939319  0.02371115     0.66300
H1236       H  0.58132117  0.47063396  0.95939369     0.15200
H1237       H  0.69206733  0.41152738  0.96626543     0.14900
N1238       N  0.68362683  0.44341640  0.90254365     0.74000
O1239       O  0.59104330  0.46319037  0.04754135    -0.39500
O1240       O  0.56402311  0.42070206  0.02212149    -0.39400
O1241       O  0.70990350  0.96110353  0.90564035    -0.40100
O1242       O  0.68261469  0.42053995  0.87760425    -0.40200
C1243       C  0.67210420  0.05808361  0.71823974    -0.12500
C1244       C  0.65921215  0.08357670  0.74204866     0.04500
C1245       C  0.66423117  0.11729315  0.73105038    -0.07800
C1246       C  0.68327123  0.12461055  0.69856722    -0.08500
C1247       C  0.69773858  0.09909565  0.67603045    -0.03100
C1248       C  0.69096255  0.06542302  0.68572855     0.03800
N1249       N  0.70429885  0.03817007  0.66389461     0.66300
H1250       H  0.66854389  0.03197768  0.72545939     0.15200
H1251       H  0.68769590  0.15068489  0.69177098     0.14900
N1252       N  0.65131983  0.14463276  0.75307754     0.74000
O1253       O  0.68954930  0.02906503  0.63361029    -0.39500
O1254       O  0.73205995  0.02467466  0.67351694    -0.39400
O1255       O  0.67119410  0.16055407  0.77506901    -0.40100
O1256       O  0.62304250  0.15744104  0.74412789    -0.40200
C1257       C  0.77112861  0.28679684  0.97402749    -0.12500
C1258       C  0.80693173  0.28571073  0.97757661     0.04500
C1259       C  0.82267027  0.30823919  0.00370588    -0.07800
C1260       C  0.80249251  0.32969994  0.02637314    -0.08500
C1261       C  0.76672922  0.32928423  0.02364341    -0.03100
C1262       C  0.75123655  0.30803509  0.99651027     0.03800
N1263       N  0.71512224  0.30793810  0.99111847     0.66300
H1264       H  0.75799160  0.27075091  0.95359756     0.15200
H1265       H  0.81481951  0.34573451  0.04744397     0.14900
N1266       N  0.85880606  0.30893965  0.00867297     0.74000
O1267       O  0.70207834  0.32719874  0.96689973    -0.39500
O1268       O  0.69786163  0.28365192  0.00322136    -0.39400
O1269       O  0.87577665  0.33234266  0.99413561    -0.40100
O1270       O  0.87231794  0.29137119  0.03419499    -0.40200
C1271       C  0.81792941  0.12646477  0.78887980    -0.12500
C1272       C  0.83858312  0.15370218  0.79955900     0.04500
C1273       C  0.85691172  0.17112395  0.77169822    -0.07800
C1274       C  0.85110441  0.16359297  0.73392220    -0.08500
C1275       C  0.82890694  0.13817650  0.72299672    -0.03100
C1276       C  0.81314117  0.11835088  0.75061794     0.03800
N1277       N  0.79209921  0.09056407  0.73971598     0.66300
H1278       H  0.80409119  0.11232121  0.81045575     0.15200
H1279       H  0.86315548  0.17972855  0.71196069     0.14900
N1280       N  0.88094775  0.19667567  0.78163385     0.74000
O1281       O  0.80564846  0.06432522  0.72649714    -0.39500
O1282       O  0.76023416  0.09419264  0.73740434    -0.39400
O1283       O  0.91172442  0.18862998  0.78660839    -0.40100
O1284       O  0.87383723  0.22673363  0.77430840    -0.40200
C1285       C  0.70414481  0.12052680  0.91970745    -0.12500
C1286       C  0.70955643  0.09220770  0.89606275     0.04500
C1287       C  0.74339411  0.08194684  0.88959597    -0.07800
C1288       C  0.77048246  0.10204798  0.90295181    -0.08500
C1289       C  0.76447817  0.13248349  0.92223090    -0.03100
C1290       C  0.73101791  0.14103356  0.93186939     0.03800
N1291       N  0.72368463  0.17139602  0.95205077     0.66300
H1292       H  0.67848223  0.12846075  0.92672757     0.15200
H1293       H  0.79634821  0.09525143  0.89530134     0.14900
N1294       N  0.75080725  0.05277764  0.86742868     0.74000
O1295       O  0.71589991  0.19733153  0.93376987    -0.39500
O1296       O  0.71660260  0.17002446  0.98677011    -0.39400
O1297       O  0.75850240  0.05599836  0.83305744    -0.40100
O1298       O  0.75784593  0.02575293  0.88398831    -0.40200
C1299       C  0.95332147  0.12852267  0.84963030    -0.12500
C1300       C  0.95890922  0.15834813  0.87084868     0.04500
C1301       C  0.99275174  0.16997373  0.87498258    -0.07800
C1302       C  0.51985016  0.15015645  0.86143172    -0.08500
C1303       C  0.51391584  0.11858174  0.84436375    -0.03100
C1304       C  0.98020693  0.10833097  0.83749433     0.03800
N1305       N  0.97272507  0.07649582  0.82034780     0.66300
H1306       H  0.92766680  0.11926766  0.84447904     0.15200
H1307       H  0.54581954  0.15822194  0.86723262     0.14900
N1308       N  0.50035602  0.20045207  0.89486648     0.74000
O1309       O  0.96794431  0.05145742  0.84120237    -0.39500
O1310       O  0.96240293  0.07538207  0.78643948    -0.39400
O1311       O  0.51087434  0.19921027  0.92866539    -0.40100
O1312       O  0.50467894  0.22697181  0.87633771    -0.40200
C1313       C  0.91403104  0.06570629  0.27885650    -0.12500
C1314       C  0.91872910  0.03078820  0.27765458     0.04500
C1315       C  0.94281523  0.01750082  0.25227505    -0.07800
C1316       C  0.96248617  0.03876817  0.23006466    -0.08500
C1317       C  0.95906311  0.07390241  0.23185842    -0.03100
C1318       C  0.93383634  0.08728856  0.25628263     0.03800
N1319       N  0.92825083  0.12256938  0.25914465     0.66300
H1320       H  0.89583108  0.07642718  0.29849110     0.15200
H1321       H  0.98093439  0.02725796  0.21130843     0.14900
N1322       N  0.94746585  0.48215039  0.24852078     0.74000
O1323       O  0.90484116  0.13564272  0.23959653    -0.39500
O1324       O  0.94038256  0.13858239  0.28716118    -0.39400
O1325       O  0.93215997  0.46636734  0.22229816    -0.40100
O1326       O  0.97263196  0.46873178  0.26471474    -0.40200
C1327       C  0.92657733  0.19670241  0.04448502    -0.12500
C1328       C  0.90890393  0.17136478  0.02439329     0.04500
C1329       C  0.90912563  0.13855779  0.03932347    -0.07800
C1330       C  0.92800024  0.13171251  0.07228006    -0.08500
C1331       C  0.94727093  0.15674086  0.09106658    -0.03100
C1332       C  0.94578435  0.18979096  0.07704266     0.03800
N1333       N  0.96526154  0.21641036  0.09387901     0.66300
H1334       H  0.92702002  0.22214680  0.03387239     0.15200
H1335       H  0.92842741  0.10612926  0.08246347     0.14900
N1336       N  0.89106726  0.11162999  0.02115037     0.74000
O1337       O  0.49435317  0.22305106  0.08099479    -0.39500
O1338       O  0.95045912  0.23782784  0.11446784    -0.39400
O1339       O  0.90720965  0.09086762  0.00095354    -0.40100
O1340       O  0.86167029  0.10408599  0.03251531    -0.40200
C1341       C  0.58410051  0.24044672  0.09825989    -0.12500
C1342       C  0.57726235  0.23577650  0.13693998     0.04500
C1343       C  0.59124397  0.25860211  0.16352097    -0.07800
C1344       C  0.61343565  0.28377684  0.15147721    -0.08500
C1345       C  0.62140687  0.28759651  0.11309487    -0.03100
C1346       C  0.60551623  0.26645391  0.08610651     0.03800
N1347       N  0.61274377  0.26938337  0.04676016     0.66300
H1348       H  0.57407499  0.22268087  0.07746808     0.15200
H1349       H  0.62514370  0.30019480  0.17260141     0.14900
N1350       N  0.58566222  0.25484491  0.20312582     0.74000
O1351       O  0.63477195  0.25037945  0.03208805    -0.39500
O1352       O  0.59174818  0.28427026  0.02559561    -0.39400
O1353       O  0.60950420  0.24391845  0.22369082    -0.40100
O1354       O  0.56133268  0.27041568  0.21838423    -0.40200
C1355       C  0.62385988  0.47960233  0.16568100    -0.12500
C1356       C  0.65044157  0.48246366  0.13914669     0.04500
C1357       C  0.65845157  0.01480826  0.12595444    -0.07800
C1358       C  0.63834797  0.04244902  0.13680687    -0.08500
C1359       C  0.60986707  0.03852852  0.16028605    -0.03100
C1360       C  0.60326832  0.50681215  0.17549173     0.03800
N1361       N  0.57492076  0.50151740  0.19982938     0.66300
H1362       H  0.61737223  0.45542559  0.17742008     0.15200
H1363       H  0.64378873  0.06685338  0.12490146     0.14900
N1364       N  0.68562427  0.01985244  0.10000006     0.74000
O1365       O  0.54694034  0.49179859  0.18564717    -0.39500
O1366       O  0.57983060  0.99799102  0.23468636    -0.39400
O1367       O  0.67886315  0.02329937  0.06528621    -0.40100
O1368       O  0.71446765  0.02880079  0.11255149    -0.40200
C1369       C  0.60109317  0.09054523  0.03310086    -0.12500
C1370       C  0.57346775  0.11094062  0.04280233     0.04500
C1371       C  0.55317913  0.12518466  0.01398537    -0.07800
C1372       C  0.55994081  0.11756120  0.97611193    -0.08500
C1373       C  0.58594404  0.09514402  0.96672888    -0.03100
C1374       C  0.60713320  0.08209853  0.99534142     0.03800
N1375       N  0.63417607  0.05946658  0.98654342     0.66300
H1376       H  0.61678824  0.07940989  0.05506921     0.15200
H1377       H  0.54353472  0.12760692  0.95409092     0.14900
N1378       N  0.52508539  0.14655436  0.02270649     0.74000
O1379       O  0.66397147  0.07079280  0.98274426    -0.39500
O1380       O  0.62993518  0.02846826  0.99154813    -0.39400
O1381       O  0.52898194  0.17791958  0.02108879    -0.40100
O1382       O  0.49534746  0.13450019  0.02193976    -0.40200
C1383       C  0.67917347  0.17518497  0.53059010    -0.12500
C1384       C  0.71474806  0.17911512  0.53284929     0.04500
C1385       C  0.73032630  0.20348900  0.51035233    -0.07800
C1386       C  0.71061958  0.22377001  0.48695457    -0.08500
C1387       C  0.67486516  0.22077870  0.48481223    -0.03100
C1388       C  0.65910754  0.19576074  0.50695319     0.03800
N1389       N  0.62303465  0.19103414  0.50635993     0.66300
H1390       H  0.66678062  0.15655354  0.54794318     0.15200
H1391       H  0.72396405  0.24212485  0.47011334     0.14900
N1392       N  0.76649361  0.20743866  0.51008101     0.74000
O1393       O  0.61024405  0.16945175  0.48403992    -0.39500
O1394       O  0.60586019  0.20104251  0.53427729    -0.39400
O1395       O  0.78361382  0.19202108  0.48535885    -0.40100
O1396       O  0.77977716  0.23194817  0.52761436    -0.40200
C1397       C  0.61662664  0.18429477  0.27587322    -0.12500
C1398       C  0.58274963  0.17257793  0.27365047     0.04500
C1399       C  0.56136432  0.17812270  0.30517033    -0.07800
C1400       C  0.57278991  0.19773346  0.33577957    -0.08500
C1401       C  0.60550327  0.21193605  0.33640084    -0.03100
C1402       C  0.62808846  0.20385144  0.30678062     0.03800
N1403       N  0.66187411  0.21727417  0.30619836     0.66300
H1404       H  0.63379550  0.18008553  0.25249084     0.15200
H1405       H  0.55537893  0.20271257  0.35878604     0.14900
N1406       N  0.52749049  0.16502965  0.30634208     0.74000
O1407       O  0.68570627  0.20234655  0.32324342    -0.39500
O1408       O  0.66734685  0.24543747  0.29144762    -0.39400
O1409       O  0.52208214  0.13808785  0.32372774    -0.40100
O1410       O  0.50275067  0.18405893  0.29879963    -0.40200
C1411       C  0.96414552  0.35421274  0.36165967    -0.12500
C1412       C  0.97124135  0.38408520  0.34223369     0.04500
C1413       C  0.00510628  0.39176736  0.33372275    -0.07800
C1414       C  0.53119241  0.37117615  0.34687969    -0.08500
C1415       C  0.52472574  0.34348113  0.37044263    -0.03100
C1416       C  0.99050605  0.33394482  0.37601961     0.03800
N1417       N  0.98194412  0.30527970  0.39790736     0.66300
H1418       H  0.93797495  0.34789204  0.36834266     0.15200
H1419       H  0.55713378  0.37849396  0.34035942     0.14900
N1420       N  0.51369482  0.42090495  0.31270431     0.74000
O1421       O  0.97504389  0.30902374  0.43250676    -0.39500
O1422       O  0.97306406  0.27856635  0.38105859    -0.39400
O1423       O  0.52316735  0.44706807  0.33027373    -0.40100
O1424       O  0.52098680  0.41753301  0.27815812    -0.40200
C1425       C  0.74685355  0.41882893  0.39543933    -0.12500
C1426       C  0.77856954  0.40260774  0.39496825     0.04500
C1427       C  0.78170867  0.37169641  0.41470025    -0.07800
C1428       C  0.75301949  0.35641153  0.42996488    -0.08500
C1429       C  0.72086121  0.37086272  0.42675635    -0.03100
C1430       C  0.71815992  0.40345575  0.41151653     0.03800
N1431       N  0.68611510  0.42030260  0.40969341     0.66300
H1432       H  0.74390552  0.44299729  0.38196610     0.15200
H1433       H  0.75550477  0.33144632  0.44170517     0.14900
N1434       N  0.81323044  0.35391934  0.41753147     0.74000
O1435       O  0.67789614  0.43976888  0.43647836    -0.39500
O1436       O  0.67082230  0.42256617  0.37827560    -0.39400
O1437       O  0.82768399  0.35173218  0.44943547    -0.40100
O1438       O  0.82092593  0.33315869  0.39179434    -0.40200
C1439       C  0.69392972  0.35136822  0.24861918    -0.12500
C1440       C  0.66591730  0.35896986  0.22508747     0.04500
C1441       C  0.63350713  0.36310202  0.24185936    -0.07800
C1442       C  0.62942719  0.35694783  0.28055263    -0.08500
C1443       C  0.65708763  0.34700824  0.30292928    -0.03100
C1444       C  0.68976883  0.34534659  0.28708937     0.03800
N1445       N  0.71899551  0.33745462  0.30970405     0.66300
H1446       H  0.71936328  0.34908317  0.23704400     0.15200
H1447       H  0.60420526  0.35862807  0.29285691     0.14900
N1448       N  0.60442678  0.37307005  0.22023643     0.74000
O1449       O  0.73021923  0.30782400  0.30962124    -0.39500
O1450       O  0.73785785  0.36095251  0.32182262    -0.39400
O1451       O  0.58265707  0.35128692  0.21036767    -0.40100
O1452       O  0.59635349  0.40367242  0.21961771    -0.40200
C1453       C  0.55161196  0.42023425  0.74031471    -0.12500
C1454       C  0.51591678  0.42286366  0.74041145     0.04500
C1455       C  0.50062125  0.44620292  0.76501161    -0.07800
C1456       C  0.52081224  0.46750021  0.78737132    -0.08500
C1457       C  0.55670746  0.46647785  0.78624599    -0.03100
C1458       C  0.57210459  0.44167657  0.76301552     0.03800
N1459       N  0.60826906  0.43825883  0.76140728     0.66300
H1460       H  0.06371589  0.40237666  0.72135524     0.15200
H1461       H  0.50782702  0.48530798  0.80564733     0.14900
N1462       N  0.46437929  0.44841405  0.76788087     0.74000
O1463       O  0.12272523  0.41641580  0.78158959    -0.39500
O1464       O  0.62419639  0.45095919  0.73418448    -0.39400
O1465       O  0.44948066  0.43287411  0.79391975    -0.40100
O1466       O  0.44874030  0.47135235  0.75064463    -0.40200
C1467       C  0.94044588  0.39350232  0.51593180    -0.12500
C1468       C  0.91189448  0.39419669  0.53976800     0.04500
C1469       C  0.87923056  0.39902496  0.52353191    -0.07800
C1470       C  0.87632357  0.40581674  0.48491242    -0.08500
C1471       C  0.90524169  0.40744979  0.46222511    -0.03100
C1472       C  0.93752767  0.40093756  0.47767229     0.03800
N1473       N  0.96774747  0.40462854  0.45573890     0.66300
H1474       H  0.96571960  0.38882452  0.52740390     0.15200
H1475       H  0.85141005  0.41126854  0.47284739     0.14900
N1476       N  0.84894482  0.39824045  0.54561233     0.74000
O1477       O  0.97963410  0.43362241  0.45050798    -0.39500
O1478       O  0.98656386  0.37951502  0.44998200    -0.39400
O1479       O  0.83638642  0.42550417  0.55725375    -0.40100
O1480       O  0.83001446  0.37270088  0.54337160    -0.40200
C1481       C  0.87128379  0.97546862  0.61306208    -0.12500
C1482       C  0.86940721  0.46356863  0.65027954     0.03700
C1483       C  0.84330013  0.47550360  0.67398850    -0.07800
C1484       C  0.82160796  0.50114380  0.66113074    -0.08500
C1485       C  0.82491560  0.01406757  0.62435595    -0.03100
C1486       C  0.84924830  0.00009676  0.59993313     0.03800
N1487       N  0.85494981  0.01363617  0.56328669     0.66300
H1488       H  0.89054748  0.96597765  0.59388182     0.15200
H1489       H  0.80340295  0.51218478  0.68045953     0.14900
N1490       N  0.84004452  0.46373823  0.71178019     0.74000
O1491       O  0.87952428  0.03359823  0.55907634    -0.39500
O1492       O  0.84233921  0.99899295  0.53458589    -0.39400
O1493       O  0.85186726  0.48118335  0.73886695    -0.40100
O1494       O  0.81920851  0.44046849  0.71852124    -0.40200
C1495       C  0.91400359  0.23959433  0.63277338    -0.12500
C1496       C  0.90214418  0.27060683  0.61984778     0.04500
C1497       C  0.87373867  0.27088853  0.59465916    -0.07800
C1498       C  0.85467572  0.24169805  0.58835395    -0.08500
C1499       C  0.86515732  0.21119742  0.60338271    -0.03100
C1500       C  0.89633810  0.20981193  0.62371194     0.03800
N1501       N  0.90988847  0.17859059  0.63632458     0.66300
H1502       H  0.93627421  0.23851218  0.65102805     0.15200
H1503       H  0.83136555  0.24295381  0.57198312     0.14900
N1504       N  0.86306952  0.30091033  0.57628932     0.74000
O1505       O  0.92683910  0.16093098  0.61342671    -0.39500
O1506       O  0.91314806  0.17345645  0.67132498    -0.39400
O1507       O  0.88266448  0.31530937  0.55340108    -0.40100
O1508       O  0.83457323  0.31372570  0.58404992    -0.40200
C1509       C  0.54682128  0.32051149  0.58435801    -0.12500
C1510       C  0.53659566  0.35385144  0.59018061     0.04500
C1511       C  0.54836455  0.37842284  0.56464314    -0.07800
C1512       C  0.56728748  0.36883687  0.53280320    -0.08500
C1513       C  0.57547103  0.33514236  0.52559659    -0.03100
C1514       C  0.56628264  0.31104945  0.55294144     0.03800
N1515       N  0.57637494  0.27678023  0.54948158     0.66300
H1516       H  0.53906938  0.30126253  0.60402066     0.15200
H1517       H  0.57438878  0.38798673  0.51272352     0.14900
N1518       N  0.54032685  0.41311338  0.56947304     0.74000
O1519       O  0.60324910  0.26735895  0.56605386    -0.39500
O1520       O  0.55471319  0.25513669  0.53888342    -0.39400
O1521       O  0.56217686  0.43233849  0.58465374    -0.40100
O1522       O  0.51662787  0.42565354  0.54991051    -0.40200
C1523       C  0.85518742  0.29360935  0.80193923    -0.12500
C1524       C  0.87795342  0.29052078  0.83260024     0.04500
C1525       C  0.90930009  0.30777507  0.83135494    -0.07800
C1526       C  0.91869862  0.32485854  0.79847561    -0.08500
C1527       C  0.89705705  0.32576805  0.76648876    -0.03100
C1528       C  0.86458115  0.31042169  0.76886124     0.03800
N1529       N  0.84218791  0.30852829  0.73678955     0.66300
H1530       H  0.83096009  0.28052412  0.80230707     0.15200
H1531       H  0.94336328  0.33709076  0.79780019     0.14900
N1532       N  0.93164534  0.30846861  0.86352452     0.74000
O1533       O  0.84558829  0.28486123  0.71311177    -0.39500
O1534       O  0.81499667  0.32535569  0.73680567    -0.39400
O1535       O  0.95898068  0.29188080  0.86299869    -0.40100
O1536       O  0.92210762  0.32223406  0.89397359    -0.40200
O1537       O  0.89767499  0.82817784  0.63201783    -0.82000
C1538       C  0.49514120  0.90532442  0.71119777     0.97400
O1539       O  0.49765325  0.87369898  0.70565198    -0.71100
O1540       O  0.94208273  0.83984020  0.72518177    -0.74700
Al1541     Al  0.96704232  0.84151225  0.67954592     1.49000
C1542       C  0.91028851  0.83967627  0.73037531     0.92600
O1543       O  0.88650159  0.91200194  0.67851646    -0.80900
O1544       O  0.94830176  0.89842277  0.59263309    -0.74500
Al1545     Al  0.89598378  0.86955908  0.65555800     1.90100
O1546       O  0.92361099  0.93932529  0.64569661    -0.73600
O1547       O  0.50535377  0.89110689  0.63055760    -0.73400
O1548       O  0.97579866  0.92304753  0.69073450    -0.79100
O1549       O  0.49482360  0.83800506  0.63557847    -0.77300
O1550       O  0.94118052  0.87347387  0.65958208    -1.13400
O1551       O  0.94160518  0.80383391  0.65785530    -0.72600
C1552       C  0.91523259  0.80249876  0.63695812     0.98100
C1553       C  0.89485427  0.93793452  0.66100694     0.94500
Al1554     Al  0.96146729  0.90999138  0.64190175     1.55600
O1555       O  0.89006790  0.84966795  0.70470716    -0.77200
C1556       C  0.51139255  0.86136054  0.62057608     0.98700
C1557       C  0.91824298  0.89280224  0.58104048     0.93600
O1558       O  0.89431198  0.88712773  0.60423613    -0.82500
O1559       O  0.58064262  0.84670880  0.39082499    -0.82000
C1560       C  0.65639221  0.74404770  0.45862270     0.97400
O1561       O  0.62426173  0.74271598  0.45280251    -0.71100
O1562       O  0.58957682  0.79505272  0.47803238    -0.74700
Al1563     Al  0.59245852  0.77520009  0.42961156     1.49000
C1564       C  0.58967766  0.82541785  0.48796526     0.92600
O1565       O  0.66322050  0.85600746  0.44175753    -0.80900
O1566       O  0.65596695  0.80391499  0.34737100    -0.74500
Al1567     Al  0.62131826  0.84723804  0.41635114     1.90100
O1568       O  0.69333825  0.82114932  0.40809745    -0.73600
O1569       O  0.64425682  0.74404752  0.37499904    -0.73400
O1570       O  0.67433686  0.76503220  0.44110430    -0.79100
O1571       O  0.59002199  0.75178742  0.38312694    -0.77300
O1572       O  0.62570234  0.80266472  0.41400269    -1.13400
O1573       O  0.55427082  0.80182569  0.40947476    -0.72600
C1574       C  0.55437281  0.82907775  0.39126866     0.98100
C1575       C  0.69107834  0.84793882  0.42707418     0.94500
Al1576     Al  0.66364476  0.78497915  0.39499775     1.55600
O1577       O  0.59972186  0.84775827  0.46530404    -0.77200
C1578       C  0.61385590  0.73705391  0.36639511     0.98700
C1579       C  0.65088474  0.83459865  0.34113214     0.93600
O1580       O  0.64112349  0.85456886  0.36705317    -0.82500
O1581       O  0.57944483  0.67732027  0.13615816    -0.82000
C1582       C  0.98202669  0.59447737  0.20714226     0.97400
O1583       O  0.98050847  0.62644027  0.20581013    -0.71100
O1584       O  0.53756484  0.65514693  0.23235108    -0.74700
Al1585     Al  0.51323819  0.65994718  0.18626032     1.49000
C1586       C  0.56925916  0.65932338  0.23669378     0.92600
O1587       O  0.59425462  0.59322622  0.17995092    -0.80900
O1588       O  0.53374442  0.60848932  0.09177662    -0.74500
Al1589     Al  0.58376400  0.63551893  0.15880033     1.90100
O1590       O  0.55765992  0.56474998  0.14520891    -0.73600
O1591       O  0.97666941  0.61609928  0.12791109    -0.73400
O1592       O  0.00279316  0.57891190  0.18619257    -0.79100
O1593       O  0.98678978  0.66854821  0.14180497    -0.77300
O1594       O  0.53895116  0.63000123  0.16215335    -1.13400
O1595       O  0.54046323  0.69941791  0.17260457    -0.72600
C1596       C  0.56427140  0.70260494  0.14877534     0.98100
C1597       C  0.58546639  0.56636245  0.16350258     0.94500
Al1598     Al  0.51931461  0.59482622  0.13989108     1.55600
O1599       O  0.58917816  0.65492794  0.20896510    -0.77200
C1600       C  0.97109640  0.64682005  0.12215037     0.98700
C1601       C  0.56427468  0.61350923  0.08276138     0.93600
O1602       O  0.58714946  0.61826687  0.10776525    -0.82500
O1603       O  0.90240852  0.65516713  0.89113751    -0.82000
C1604       C  0.82571406  0.76115701  0.95324360     0.97400
O1605       O  0.85821638  0.76139019  0.95002670    -0.71100
O1606       O  0.89395865  0.70978881  0.97625467    -0.74700
Al1607     Al  0.89082249  0.72890566  0.92764031     1.49000
C1608       C  0.89370640  0.67969101  0.98672513     0.92600
O1609       O  0.81920937  0.65152307  0.94066842    -0.80900
O1610       O  0.83229390  0.69781969  0.84349797    -0.74500
Al1611     Al  0.86131624  0.65671828  0.91564164     1.90100
O1612       O  0.79016421  0.68220717  0.90134383    -0.73600
O1613       O  0.83983701  0.75888675  0.87041002    -0.73400
O1614       O  0.80784172  0.74017416  0.93454968    -0.79100
O1615       O  0.89381856  0.75216287  0.88110363    -0.77300
O1616       O  0.85782783  0.70128952  0.91160135    -1.13400
O1617       O  0.92861172  0.70146817  0.90777333    -0.72600
C1618       C  0.92857300  0.67311745  0.89090237     0.98100
C1619       C  0.79185633  0.65769211  0.92346933     0.94500
Al1620     Al  0.82071028  0.71828376  0.88969617     1.55600
O1621       O  0.88281689  0.65697074  0.96460676    -0.77200
C1622       C  0.87019089  0.76637497  0.86331488     0.98700
C1623       C  0.83764842  0.66688207  0.83850224     0.93600
O1624       O  0.84176182  0.64729227  0.86618534    -0.82500
O1625       O  0.65284077  0.59586709  0.87642979    -0.82000
C1626       C  0.57600977  0.99127204  0.81044449     0.97400
O1627       O  0.60851781  0.99088302  0.81390282    -0.71100
O1628       O  0.64359880  0.54357749  0.78851902    -0.74700
Al1629     Al  0.64120568  0.52336297  0.83682921     1.49000
C1630       C  0.64391097  0.57406355  0.77934141     0.92600
O1631       O  0.56925160  0.60120060  0.82624331    -0.80900
O1632       O  0.58328334  0.55173841  0.92186225    -0.74500
Al1633     Al  0.61177030  0.59508585  0.85129449     1.90100
O1634       O  0.54077412  0.56900751  0.86413869    -0.73600
O1635       O  0.59097629  0.99179358  0.89216688    -0.73400
O1636       O  0.55850657  0.01240511  0.82886533    -0.79100
O1637       O  0.64500145  0.99923467  0.88290914    -0.77300
O1638       O  0.60833218  0.55046879  0.85361119    -1.13400
O1639       O  0.67909253  0.55060288  0.85721469    -0.72600
C1640       C  0.67906837  0.57815598  0.87564775     0.98100
C1641       C  0.54205260  0.59426567  0.84306538     0.94500
Al1642     Al  0.57149728  0.53275471  0.87462972     1.55600
O1643       O  0.63331711  0.59614514  0.80235854    -0.77200
C1644       C  0.62135951  0.98468038  0.89998308     0.98700
C1645       C  0.58785705  0.58267371  0.92782779     0.93600
O1646       O  0.59241691  0.60290402  0.90085396    -0.82500
O1647       O  0.82884295  0.57177203  0.62963677    -0.82000
C1648       C  0.73539917  0.65950248  0.56008168     0.97400
O1649       O  0.73144644  0.62795779  0.56266746    -0.71100
O1650       O  0.78608652  0.59750893  0.53480936    -0.74700
Al1651     Al  0.76260323  0.59337176  0.58111111     1.49000
C1652       C  0.81746407  0.59193952  0.52983077     0.92600
O1653       O  0.84837054  0.65546598  0.58748661    -0.80900
O1654       O  0.78829881  0.64336254  0.67505629    -0.74500
Al1655     Al  0.83525967  0.61367793  0.60774317     1.90100
O1656       O  0.81332864  0.68579055  0.62144497    -0.73600
O1657       O  0.72974641  0.63867672  0.64022021    -0.73400
O1658       O  0.75676804  0.67475297  0.58099479    -0.79100
O1659       O  0.73675829  0.58589743  0.62580160    -0.77300
O1660       O  0.79065215  0.62175861  0.60493211    -1.13400
O1661       O  0.78757696  0.55271068  0.59334543    -0.72600
C1662       C  0.81196686  0.54774754  0.61622102     0.98100
C1663       C  0.84085233  0.68284060  0.60331239     0.94500
Al1664     Al  0.77347463  0.65784807  0.62736593     1.55600
O1665       O  0.83845634  0.59502692  0.55712277    -0.77200
C1666       C  0.72225177  0.60821083  0.64545887     0.98700
C1667       C  0.81854669  0.63613204  0.68365032     0.93600
O1668       O  0.84060745  0.62990653  0.65869210    -0.82500
O1669       O  0.83480012  0.90109210  0.37397098    -0.82000
C1670       C  0.90299313  0.50874287  0.30642373     0.97400
O1671       O  0.87084810  0.50850031  0.31230630    -0.71100
O1672       O  0.83962493  0.95429956  0.28683225    -0.74700
Al1673     Al  0.84098108  0.97395488  0.33503347     1.49000
C1674       C  0.84072745  0.92411620  0.27646873     0.92600
O1675       O  0.91656608  0.90173937  0.32149836    -0.80900
O1676       O  0.90372132  0.95062745  0.41832520    -0.74500
Al1677     Al  0.87492929  0.90468784  0.34772027     1.90100
O1678       O  0.94481941  0.93490924  0.35983614    -0.73600
O1679       O  0.88956107  0.50989563  0.39048907    -0.73400
O1680       O  0.92280341  0.49027680  0.32532141    -0.79100
O1681       O  0.83655557  0.49672628  0.38145320    -0.77300
O1682       O  0.87583423  0.94935078  0.35093492    -1.13400
O1683       O  0.80553345  0.94425681  0.35505692    -0.72600
C1684       C  0.80758488  0.91716146  0.37362200     0.98100
C1685       C  0.94365411  0.90907471  0.33885838     0.94500
Al1686     Al  0.91218649  0.96983277  0.37129091     1.55600
O1687       O  0.85201090  0.90208671  0.29885659    -0.77200
C1688       C  0.85854221  0.51373969  0.39880229     0.98700
C1689       C  0.90143222  0.91950831  0.42377554     0.93600
O1690       O  0.89625960  0.89872476  0.39684087    -0.82500
O1691       O  0.64966817  0.92424350  0.13235182    -0.82000
C1692       C  0.74567085  0.84719972  0.05235956     0.97400
O1693       O  0.74787130  0.87893477  0.05742370    -0.71100
O1694       O  0.69071789  0.90878260  0.03675908    -0.74700
Al1695     Al  0.71629650  0.91108358  0.08176221     1.49000
C1696       C  0.65881945  0.90999765  0.03259751     0.92600
O1697       O  0.63740891  0.83987862  0.08639225    -0.80900
O1698       O  0.70144094  0.85591509  0.17163084    -0.74500
Al1699     Al  0.64702519  0.88268603  0.10892112     1.90100
O1700       O  0.67519092  0.81305418  0.11967646    -0.73600
O1701       O  0.75661549  0.86467813  0.13155150    -0.73400
O1702       O  0.72645025  0.82964423  0.07292333    -0.79100
O1703       O  0.74451989  0.91752122  0.12545705    -0.77300
O1704       O  0.69184711  0.87926513  0.10377491    -1.13400
O1705       O  0.68951820  0.94933402  0.10064418    -0.72600
C1706       C  0.66475552  0.95063961  0.12348849     0.98100
C1707       C  0.64644611  0.81386194  0.10354119     0.94500
Al1708     Al  0.71315943  0.84362078  0.12203298     1.55600
O1709       O  0.63923262  0.90223420  0.05953913    -0.77200
C1710       C  0.76200051  0.89489856  0.14081616     0.98700
C1711       C  0.67154293  0.86068942  0.18358438     0.93600
O1712       O  0.64704115  0.86549594  0.16042882    -0.82500
C1713       C  0.81581787  0.94182999  0.21470634    -0.12500
C1714       C  0.82638253  0.91544417  0.23829309     0.04500
C1715       C  0.81921739  0.88223025  0.22642455    -0.07800
C1716       C  0.80018537  0.87632012  0.19324442    -0.08500
C1717       C  0.78724461  0.90282652  0.17141545    -0.03100
C1718       C  0.79617546  0.93600117  0.18201251     0.03800
N1719       N  0.78438714  0.96428600  0.16113062     0.66300
H1720       H  0.82131752  0.96766888  0.22260925     0.15200
H1721       H  0.79394149  0.85054503  0.18577103     0.14900
N1722       N  0.82904175  0.85417874  0.24874918     0.74000
O1723       O  0.75720901  0.97865699  0.17104602    -0.39500
O1724       O  0.80493517  0.97965321  0.14017249    -0.39400
O1725       O  0.80719073  0.84030863  0.26942069    -0.40100
O1726       O  0.85615420  0.83873709  0.24091421    -0.40200
C1727       C  0.80392425  0.56144001  0.47021365    -0.12500
C1728       C  0.82857618  0.57767628  0.49280138     0.04500
C1729       C  0.86310570  0.57560757  0.48179232    -0.07800
C1730       C  0.87229814  0.55530121  0.45070084    -0.08500
C1731       C  0.84767662  0.53744872  0.42943271    -0.03100
C1732       C  0.81288058  0.54164694  0.43903654     0.03800
N1733       N  0.78603360  0.52519009  0.41843891     0.66300
H1734       H  0.77720467  0.56266182  0.47776583     0.15200
H1735       H  0.89900857  0.55341848  0.44331194     0.14900
N1736       N  0.88893120  0.59496680  0.50071806     0.74000
O1737       O  0.77465456  0.99755009  0.43016917    -0.39500
O1738       O  0.76810007  0.04182468  0.39539312    -0.39400
O1739       O  0.91324552  0.58026851  0.51716339    -0.40100
O1740       O  0.89207516  0.62556949  0.49270973    -0.40200
C1741       C  0.60535724  0.95742716  0.96043943    -0.12500
C1742       C  0.62875224  0.96057491  0.93073314     0.04500
C1743       C  0.65961809  0.94264146  0.93277621    -0.07800
C1744       C  0.66743887  0.92406451  0.96504816    -0.08500
C1745       C  0.64537453  0.92318542  0.99619868    -0.03100
C1746       C  0.61342622  0.93929311  0.99312233     0.03800
N1747       N  0.59004596  0.93993871  0.02390339     0.66300
H1748       H  0.58140357  0.97098118  0.95946205     0.15200
H1749       H  0.69184327  0.91132054  0.96629267     0.14900
N1750       N  0.68350004  0.94314938  0.90251488     0.74000
O1751       O  0.59140398  0.96376837  0.04767717    -0.39500
O1752       O  0.56390093  0.92149337  0.02244803    -0.39400
O1753       O  0.70995641  0.46146788  0.90573200    -0.40100
O1754       O  0.68238833  0.92022163  0.87763991    -0.40200
C1755       C  0.67208479  0.55806638  0.71828024    -0.12500
C1756       C  0.65905557  0.58356750  0.74198512     0.04500
C1757       C  0.66398996  0.61727463  0.73090693    -0.07800
C1758       C  0.68305407  0.62458275  0.69843706    -0.08500
C1759       C  0.69764918  0.59906837  0.67600373    -0.03100
C1760       C  0.69098821  0.56539546  0.68579772     0.03800
N1761       N  0.70452333  0.53813883  0.66412498     0.66300
H1762       H  0.66861369  0.53196575  0.72557434     0.15200
H1763       H  0.68740105  0.65065562  0.69157499     0.14900
N1764       N  0.65098929  0.64462018  0.75285675     0.74000
O1765       O  0.68984016  0.52878891  0.63389410    -0.39500
O1766       O  0.73238177  0.52488397  0.67383148    -0.39400
O1767       O  0.67080056  0.66061473  0.77485121    -0.40100
O1768       O  0.62269951  0.65735940  0.74382889    -0.40200
C1769       C  0.77126714  0.78801920  0.97309984    -0.12500
C1770       C  0.80694930  0.78602466  0.97759196     0.04500
C1771       C  0.82265084  0.80769994  0.00464019    -0.07800
C1772       C  0.80249271  0.82915445  0.02732109    -0.08500
C1773       C  0.76679538  0.82960422  0.02365474    -0.03100
C1774       C  0.75138912  0.80928147  0.99558215     0.03800
N1775       N  0.71540626  0.81016607  0.98924232     0.66300
H1776       H  0.75822951  0.77267654  0.95191483     0.15200
H1777       H  0.81473006  0.84448117  0.04911552     0.14900
N1778       N  0.85867861  0.80744979  0.01057599     0.74000
O1779       O  0.70337922  0.83026431  0.96525948    -0.39500
O1780       O  0.69727602  0.78605045  0.00019964    -0.39400
O1781       O  0.87652734  0.83074684  0.99713027    -0.40100
O1782       O  0.87119728  0.78904670  0.03595510    -0.40200
C1783       C  0.81766108  0.62660471  0.78903525    -0.12500
C1784       C  0.83831675  0.65384243  0.79970922     0.04500
C1785       C  0.85669727  0.67121817  0.77185523    -0.07800
C1786       C  0.85092206  0.66366143  0.73407769    -0.08500
C1787       C  0.82872224  0.63824451  0.72315280    -0.03100
C1788       C  0.81292203  0.61844965  0.75077701     0.03800
N1789       N  0.79192765  0.59062614  0.73988339     0.66300
H1790       H  0.80380041  0.61248342  0.81060809     0.15200
H1791       H  0.86302108  0.67975450  0.71211556     0.14900
N1792       N  0.88080112  0.69670577  0.78180168     0.74000
O1793       O  0.80553629  0.56434946  0.72683915    -0.39500
O1794       O  0.76006995  0.59423753  0.73740474    -0.39400
O1795       O  0.91152537  0.68855255  0.78695465    -0.40100
O1796       O  0.87384273  0.72677024  0.77433574    -0.40200
C1797       C  0.70384978  0.62080816  0.91961342    -0.12500
C1798       C  0.70932368  0.59245463  0.89603997     0.04500
C1799       C  0.74317870  0.58218682  0.88970244    -0.07800
C1800       C  0.77023271  0.60229814  0.90312450    -0.08500
C1801       C  0.76418316  0.63275752  0.92233681    -0.03100
C1802       C  0.73069358  0.64132620  0.93183986     0.03800
N1803       N  0.72330700  0.67170111  0.95197222     0.66300
H1804       H  0.67816749  0.62874648  0.92653991     0.15200
H1805       H  0.79611831  0.59548683  0.89557192     0.14900
N1806       N  0.75065208  0.55300008  0.86759217     0.74000
O1807       O  0.71550484  0.69760623  0.93364577    -0.39500
O1808       O  0.71617357  0.67035178  0.98667969    -0.39400
O1809       O  0.75837837  0.55618983  0.83322580    -0.40100
O1810       O  0.75772433  0.52601040  0.88420614    -0.40200
C1811       C  0.95304453  0.62836856  0.84989654    -0.12500
C1812       C  0.95864642  0.65824805  0.87101218     0.04500
C1813       C  0.99249022  0.66989750  0.87504938    -0.07800
C1814       C  0.51957644  0.65008226  0.86147923    -0.08500
C1815       C  0.51363805  0.61848039  0.84447827    -0.03100
C1816       C  0.97992329  0.60817731  0.83773773     0.03800
N1817       N  0.97243202  0.57629924  0.82070082     0.66300
H1818       H  0.92738968  0.61907826  0.84483501     0.15200
H1819       H  0.54555002  0.65817752  0.86720085     0.14900
N1820       N  0.50011142  0.70039451  0.89490069     0.74000
O1821       O  0.96773975  0.55130136  0.84164154    -0.39500
O1822       O  0.96200324  0.57510541  0.78683435    -0.39400
O1823       O  0.51061913  0.69918792  0.92870583    -0.40100
O1824       O  0.50446120  0.72688631  0.87633004    -0.40200
C1825       C  0.91431571  0.56581178  0.27913859    -0.12500
C1826       C  0.91882058  0.53087381  0.27777580     0.04500
C1827       C  0.94271341  0.51753004  0.25221111    -0.07800
C1828       C  0.96237944  0.53875943  0.22994547    -0.08500
C1829       C  0.95914546  0.57390926  0.23188345    -0.03100
C1830       C  0.93411680  0.58735592  0.25651815     0.03800
N1831       N  0.92875376  0.62265930  0.25957476     0.66300
H1832       H  0.89627647  0.57656969  0.29893162     0.15200
H1833       H  0.98067007  0.52720823  0.21102970     0.14900
N1834       N  0.94777929  0.98214096  0.24873100     0.74000
O1835       O  0.90532564  0.63593473  0.24023231    -0.39500
O1836       O  0.94109258  0.63849403  0.28760768    -0.39400
O1837       O  0.93270326  0.96621574  0.22245332    -0.40100
O1838       O  0.97296334  0.96891593  0.26509400    -0.40200
C1839       C  0.92615413  0.69670644  0.04478697    -0.12500
C1840       C  0.90872437  0.67133310  0.02448805     0.04500
C1841       C  0.90922543  0.63844155  0.03918275    -0.07800
C1842       C  0.92815357  0.63156241  0.07209022    -0.08500
C1843       C  0.94720701  0.65663932  0.09106755    -0.03100
C1844       C  0.94541196  0.68976581  0.07730430     0.03800
N1845       N  0.96459460  0.71646775  0.09439306     0.66300
H1846       H  0.92635605  0.72222175  0.03437715     0.15200
H1847       H  0.92880642  0.60591915  0.08207139     0.14900
N1848       N  0.89142976  0.61145735  0.02079466     0.74000
O1849       O  0.49366299  0.72347254  0.08156086    -0.39500
O1850       O  0.94955274  0.73758067  0.11516356    -0.39400
O1851       O  0.90777108  0.59098136  0.00042805    -0.40100
O1852       O  0.86210582  0.60356358  0.03209021    -0.40200
C1853       C  0.58502406  0.73967263  0.09787169    -0.12500
C1854       C  0.57731599  0.73556070  0.13643568     0.04500
C1855       C  0.59028651  0.75905258  0.16290767    -0.07800
C1856       C  0.61237324  0.78436122  0.15094899    -0.08500
C1857       C  0.62124949  0.78760106  0.11273972    -0.03100
C1858       C  0.60639929  0.76572292  0.08578241     0.03800
N1859       N  0.61468073  0.76796603  0.04663453     0.66300
H1860       H  0.57575310  0.72142457  0.07718116     0.15200
H1861       H  0.62334618  0.80129975  0.17203195     0.14900
N1862       N  0.58375868  0.75591006  0.20240536     0.74000
O1863       O  0.63748920  0.74910426  0.03326709    -0.39500
O1864       O  0.59400675  0.78198548  0.02434350    -0.39400
O1865       O  0.60705811  0.74524554  0.22390093    -0.40100
O1866       O  0.55901882  0.77163084  0.21661691    -0.40200
C1867       C  0.62360827  0.97966358  0.16564466    -0.12500
C1868       C  0.65030042  0.98250953  0.13925024     0.04500
C1869       C  0.65844210  0.51475212  0.12571672    -0.07800
C1870       C  0.63830145  0.54236094  0.13658994    -0.08500
C1871       C  0.60991838  0.53841688  0.16021079    -0.03100
C1872       C  0.60307170  0.00691057  0.17545213     0.03800
N1873       N  0.57464184  0.00165145  0.19968236     0.66300
H1874       H  0.61699607  0.95547858  0.17727325     0.15200
H1875       H  0.64363184  0.56675390  0.12459717     0.14900
N1876       N  0.68547964  0.51980779  0.09959293     0.74000
O1877       O  0.54667792  0.99200954  0.18539271    -0.39500
O1878       O  0.58021935  0.49789227  0.23481911    -0.39400
O1879       O  0.67855533  0.52307979  0.06489360    -0.40100
O1880       O  0.71433399  0.52893211  0.11194743    -0.40200
C1881       C  0.60112540  0.59043729  0.03304570    -0.12500
C1882       C  0.57359246  0.61092976  0.04280149     0.04500
C1883       C  0.55340257  0.62537335  0.01403175    -0.07800
C1884       C  0.56011202  0.61778433  0.97613689    -0.08500
C1885       C  0.58598634  0.59523859  0.96669523    -0.03100
C1886       C  0.60713238  0.58205649  0.99526546     0.03800
N1887       N  0.63409213  0.55934911  0.98639669     0.66300
H1888       H  0.61676327  0.57917687  0.05498205     0.15200
H1889       H  0.54375621  0.62795791  0.95414613     0.14900
N1890       N  0.52546695  0.64692274  0.02282710     0.74000
O1891       O  0.66392403  0.57058124  0.98259359    -0.39500
O1892       O  0.62974113  0.52835235  0.99130301    -0.39400
O1893       O  0.52962315  0.67826824  0.02144810    -0.40100
O1894       O  0.49563262  0.63510575  0.02196424    -0.40200
C1895       C  0.67918100  0.67512943  0.53051991    -0.12500
C1896       C  0.71474292  0.67914608  0.53286820     0.04500
C1897       C  0.73029284  0.70361562  0.51047319    -0.07800
C1898       C  0.71057140  0.72388692  0.48707703    -0.08500
C1899       C  0.67483023  0.72079887  0.48484207    -0.03100
C1900       C  0.65910065  0.69570235  0.50689450     0.03800
N1901       N  0.62303855  0.69089543  0.50622448     0.66300
H1902       H  0.66680540  0.65643225  0.54779903     0.15200
H1903       H  0.72389293  0.74231468  0.47031367     0.14900
N1904       N  0.76644750  0.70768666  0.51031279     0.74000
O1905       O  0.61032929  0.66930425  0.48385819    -0.39500
O1906       O  0.60578915  0.70086719  0.53410084    -0.39400
O1907       O  0.78367101  0.69240512  0.48557412    -0.40100
O1908       O  0.77960442  0.73220071  0.52795646    -0.40200
C1909       C  0.61659702  0.68470016  0.27557717    -0.12500
C1910       C  0.58281674  0.67269831  0.27349552     0.04500
C1911       C  0.56149943  0.67801593  0.30511888    -0.07800
C1912       C  0.57290598  0.69758464  0.33576918    -0.08500
C1913       C  0.60552904  0.71198111  0.33631776    -0.03100
C1914       C  0.62804494  0.70419429  0.30653648     0.03800
N1915       N  0.66172429  0.71786543  0.30585722     0.66300
H1916       H  0.63369111  0.68073418  0.25207567     0.15200
H1917       H  0.55554518  0.70238159  0.35887013     0.14900
N1918       N  0.52769030  0.66477049  0.30633864     0.74000
O1919       O  0.68573430  0.70306474  0.32273778    -0.39500
O1920       O  0.66695359  0.74605306  0.29105863    -0.39400
O1921       O  0.52242883  0.63779858  0.32372095    -0.40100
O1922       O  0.50285861  0.68371028  0.29888119    -0.40200
C1923       C  0.96386330  0.85418487  0.36211529    -0.12500
C1924       C  0.97096613  0.88388784  0.34236897     0.04500
C1925       C  0.00480967  0.89135914  0.33353278    -0.07800
C1926       C  0.53088441  0.87073463  0.34666810    -0.08500
C1927       C  0.52444242  0.84323830  0.37052568    -0.03100
C1928       C  0.99022048  0.83390391  0.37645809     0.03800
N1929       N  0.98167087  0.80547037  0.39872817     0.66300
H1930       H  0.93770818  0.84802169  0.36904936     0.15200
H1931       H  0.55682163  0.87788958  0.33990042     0.14900
N1932       N  0.51339895  0.92030372  0.31219674     0.74000
O1933       O  0.97506494  0.80953703  0.43335888    -0.39500
O1934       O  0.97250863  0.77867385  0.38224225    -0.39400
O1935       O  0.52314995  0.94652054  0.32947157    -0.40100
O1936       O  0.52040881  0.91667284  0.27760591    -0.40200
C1937       C  0.74658611  0.91888764  0.39524975    -0.12500
C1938       C  0.77832906  0.90271345  0.39496285     0.04500
C1939       C  0.78146315  0.87188426  0.41486168    -0.07800
C1940       C  0.75275589  0.85661893  0.43011087    -0.08500
C1941       C  0.72058455  0.87100556  0.42671811    -0.03100
C1942       C  0.71787212  0.90353255  0.41130513     0.03800
N1943       N  0.68580229  0.92031698  0.40927988     0.66300
H1944       H  0.74363609  0.94299754  0.38164572     0.15200
H1945       H  0.75524590  0.83170345  0.44198177     0.14900
N1946       N  0.81300095  0.85415679  0.41788098     0.74000
O1947       O  0.67746335  0.93986135  0.43594528    -0.39500
O1948       O  0.67060975  0.92245018  0.37778941    -0.39400
O1949       O  0.82727724  0.85195890  0.44988094    -0.40100
O1950       O  0.82083874  0.83339689  0.39219808    -0.40200
C1951       C  0.69374184  0.85082038  0.24848596    -0.12500
C1952       C  0.66578624  0.85879472  0.22503885     0.04500
C1953       C  0.63345814  0.86328789  0.24189606    -0.07800
C1954       C  0.62938732  0.85718515  0.28060231    -0.08500
C1955       C  0.65696527  0.84689566  0.30289578    -0.03100
C1956       C  0.68958388  0.84481656  0.28695486     0.03800
N1957       N  0.71874951  0.83650136  0.30946702     0.66300
H1958       H  0.71912134  0.84822422  0.23684396     0.15200
H1959       H  0.60421264  0.85916205  0.29297588     0.14900
N1960       N  0.60444804  0.87357336  0.22035167     0.74000
O1961       O  0.72960672  0.80673742  0.30922905    -0.39500
O1962       O  0.73790956  0.85973210  0.32166947    -0.39400
O1963       O  0.58242822  0.85201946  0.21052949    -0.40100
O1964       O  0.59666597  0.90425074  0.21985318    -0.40200
C1965       C  0.55163330  0.92009750  0.74045935    -0.12500
C1966       C  0.51594643  0.92284386  0.74043991     0.04500
C1967       C  0.50067050  0.94631295  0.76490044    -0.07800
C1968       C  0.52087773  0.96761835  0.78722758    -0.08500
C1969       C  0.55677076  0.96647524  0.78621365    -0.03100
C1970       C  0.57214249  0.94154743  0.76313290     0.03800
N1971       N  0.60829956  0.93799941  0.76165729     0.66300
H1972       H  0.06372400  0.90215008  0.72159948     0.15200
H1973       H  0.50790683  0.98552902  0.80538853     0.14900
N1974       N  0.46442888  0.94865627  0.76765373     0.74000
O1975       O  0.12263075  0.91619544  0.78197142    -0.39500
O1976       O  0.62434324  0.95054017  0.73442393    -0.39400
O1977       O  0.44941481  0.93326862  0.79372609    -0.40100
O1978       O  0.44891003  0.97157909  0.75025957    -0.40200
C1979       C  0.94046395  0.89381227  0.51594105    -0.12500
C1980       C  0.91192111  0.89433936  0.53979618     0.04500
C1981       C  0.87923017  0.89909419  0.52359451    -0.07800
C1982       C  0.87626870  0.90588126  0.48497949    -0.08500
C1983       C  0.90515965  0.90761112  0.46226432    -0.03100
C1984       C  0.93748910  0.90127313  0.47769363     0.03800
N1985       N  0.96767962  0.90518780  0.45575925     0.66300
H1986       H  0.96576886  0.88924592  0.52738749     0.15200
H1987       H  0.85132936  0.91126525  0.47294189     0.14900
N1988       N  0.84896798  0.89826197  0.54571169     0.74000
O1989       O  0.97937031  0.93426564  0.45057261    -0.39500
O1990       O  0.98665634  0.88020384  0.44993639    -0.39400
O1991       O  0.83636070  0.92550876  0.55733930    -0.40100
O1992       O  0.83009478  0.87267898  0.54352676    -0.40200
C1993       C  0.87112053  0.47540338  0.61307815    -0.12500
C1994       C  0.86948160  0.96358866  0.65024084     0.03700
C1995       C  0.84329166  0.97546895  0.67387348    -0.07800
C1996       C  0.82160778  0.00110339  0.66097899    -0.08500
C1997       C  0.82482207  0.51405985  0.62447379    -0.03100
C1998       C  0.84907415  0.50003857  0.59998698     0.03800
N1999       N  0.85472061  0.51356030  0.56332196     0.66300
H2000       H  0.89033292  0.46587920  0.59385390     0.15200
H2001       H  0.80332654  0.01209508  0.68025346     0.14900
N2002       N  0.83992416  0.96363789  0.71162507     0.74000
O2003       O  0.87933718  0.53345802  0.55903871    -0.39500
O2004       O  0.84200678  0.49894596  0.53465858    -0.39400
O2005       O  0.85163033  0.98105546  0.73879601    -0.40100
O2006       O  0.81909959  0.94032532  0.71822960    -0.40200
C2007       C  0.91397851  0.73959531  0.63286800    -0.12500
C2008       C  0.90211146  0.77060168  0.61993004     0.04500
C2009       C  0.87368638  0.77087089  0.59476782    -0.07800
C2010       C  0.85463075  0.74167312  0.58848225    -0.08500
C2011       C  0.86512357  0.71118000  0.60352035    -0.03100
C2012       C  0.89630824  0.70980797  0.62384195     0.03800
N2013       N  0.90984919  0.67859868  0.63650314     0.66300
H2014       H  0.93625627  0.73852250  0.65111125     0.15200
H2015       H  0.83131642  0.74291812  0.57212441     0.14900
N2016       N  0.86298145  0.80088734  0.57641213     0.74000
O2017       O  0.92684203  0.66093120  0.61365226    -0.39500
O2018       O  0.91305458  0.67348693  0.67151371    -0.39400
O2019       O  0.88253237  0.81528168  0.55347395    -0.40100
O2020       O  0.83449385  0.81369687  0.58422473    -0.40200
C2021       C  0.54673120  0.82039642  0.58436087    -0.12500
C2022       C  0.53660412  0.85375820  0.59024270     0.04500
C2023       C  0.54844352  0.87833317  0.56475204    -0.07800
C2024       C  0.56731715  0.86873679  0.53288380    -0.08500
C2025       C  0.57538695  0.83502749  0.52560741    -0.03100
C2026       C  0.56614824  0.81092081  0.55291776     0.03800
N2027       N  0.57614205  0.77662636  0.54939726     0.66300
H2028       H  0.53892844  0.80114150  0.60399178     0.15200
H2029       H  0.57447498  0.88789757  0.51284168     0.14900
N2030       N  0.54053148  0.91304352  0.56966208     0.74000
O2031       O  0.60296872  0.76710032  0.56598589    -0.39500
O2032       O  0.55443199  0.75506045  0.53871601    -0.39400
O2033       O  0.56244411  0.93216236  0.58490320    -0.40100
O2034       O  0.51688913  0.92570500  0.55011698    -0.40200
C2035       C  0.85517892  0.79365604  0.80200721    -0.12500
C2036       C  0.87795457  0.79054545  0.83266015     0.04500
C2037       C  0.90934345  0.80772349  0.83136446    -0.07800
C2038       C  0.91873305  0.82480692  0.79848198    -0.08500
C2039       C  0.89706728  0.82575931  0.76651684    -0.03100
C2040       C  0.86458335  0.81043412  0.76890742     0.03800
N2041       N  0.84220373  0.80850234  0.73682588     0.66300
H2042       H  0.83093381  0.78060347  0.80239543     0.15200
H2043       H  0.94341981  0.83699448  0.79778284     0.14900
N2044       N  0.93176322  0.80831330  0.86347059     0.74000
O2045       O  0.84566954  0.78485321  0.71313741    -0.39500
O2046       O  0.81497595  0.82527226  0.73683118    -0.39400
O2047       O  0.95903269  0.79162365  0.86284923    -0.40100
O2048       O  0.92235780  0.82210739  0.89395517    -0.40200
loop_ 
_geom_bond_atom_site_label_1 
_geom_bond_atom_site_label_2 
_geom_bond_distance 
_geom_bond_site_symmetry_2 
_ccdc_geom_bond_type 
O1           C16   1.248       .  A
O1           Al9   1.841       .  S
C2            O3   1.278       .  A
C2         O1036   1.265       .  A
C2          C430   1.480   1_655  S
O3        Al1029   1.973       .  S
O4            C6   1.263       .  A
O4           Al5   1.896       .  S
Al5          O15   1.949       .  S
Al5        O1027   1.973       .  S
Al5        O1037   1.910       .  S
Al5          O14   1.779       .  S
C6           O19   1.268       .  A
C6          C503   1.494       .  S
O7           C17   1.255       .  A
O7           Al9   1.907       .  S
O8           C21   1.264       .  A
O8          Al18   1.865       .  S
Al9          O22   1.952       .  S
Al9          O19   1.932       .  S
Al9          O14   1.785       .  S
O10          C17   1.257       .  A
O10         Al18   1.897       .  S
O11          C20   1.257       .  A
O11       Al1042   1.924   1_455  S
O12        C1026   1.265       .  A
O12         Al18   1.879       .  S
O13          C20   1.259   1_655  A
O13       Al1029   1.910       .  S
O14         Al18   1.780       .  S
O15          C16   1.267       .  A
C16         C472   1.490       .  S
C17         C458   1.479       .  S
Al18       O1035   1.924       .  S
C20         C486   1.494       .  S
C21          O22   1.273       .  A
C21         C444   1.478       .  S
O23          C38   1.247       .  A
O23         Al31   1.827       .  S
C24          O34   1.263       .  A
C24          O25   1.277       .  A
C24         C363   1.500       .  S
O25         Al27   1.980       .  S
O26          C28   1.257       .  A
O26         Al27   1.882       .  S
Al27         O35   1.882       .  S
Al27         O37   1.971       .  S
Al27         O36   1.796       .  S
C28          O41   1.269       .  A
C28         C489   1.494       .  S
O29          C39   1.255       .  A
O29         Al31   1.897       .  S
O30          C43   1.262       .  A
O30         Al40   1.875       .  S
Al31         O44   1.938       .  S
Al31         O41   1.933       .  S
Al31         O36   1.787       .  S
O32          C39   1.259       .  A
O32         Al40   1.903       .  S
O33          C42   1.259       .  A
O33         Al40   1.924       .  S
O34         Al40   1.866       .  S
O35          C42   1.254       .  A
O36         Al40   1.782       .  S
O37          C38   1.269       .  A
C38         C391   1.494       .  S
C39         C405   1.478       .  S
C42         C377   1.485       .  S
C43          O44   1.269       .  A
C43         C419   1.464       .  S
O45          C60   1.252       .  A
O45         Al53   1.865       .  S
C46          O56   1.265       .  A
C46          O47   1.277       .  A
C46         C293   1.506       .  S
O47       Al1073   1.985       .  S
O48          C50   1.263       .  A
O48         Al49   1.893       .  S
Al49         O59   1.967       .  S
Al49       O1071   1.985   1_455  S
Al49       O1081   1.910   1_455  S
Al49         O58   1.779       .  S
C50          O63   1.270       .  A
C50         C374   1.494       .  S
O51          C61   1.259       .  A
O51         Al53   1.896       .  S
O52          C65   1.259       .  A
O52         Al62   1.882       .  S
Al53         O66   1.929       .  S
Al53         O63   1.937       .  S
Al53         O58   1.777       .  S
O54          C61   1.265       .  A
O54         Al62   1.935       .  S
O55          C64   1.263       .  A
O55       Al1086   1.924       .  S
O56       Al1086   1.881       .  S
O57          C64   1.261       .  A
O57       Al1073   1.910       .  S
O58         Al62   1.772       .  S
O59          C60   1.270       .  A
C60         C318   1.480       .  S
C61         C335   1.476       .  S
Al62       O1079   1.924   1_455  S
Al62       O1080   1.881       .  S
C64         C307   1.494       .  S
C65          O66   1.267       .  A
C65         C346   1.464       .  S
O67          C82   1.251       .  A
O67         Al75   1.837       .  S
C68          O78   1.267       .  A
C68          O69   1.282       .  A
C68         C234   1.504       .  S
O69         Al71   1.986       .  S
O70          C72   1.260       .  A
O70         Al71   1.890       .  S
Al71         O79   1.901       .  S
Al71         O81   1.974       .  S
Al71         O80   1.783       .  S
C72          O85   1.262       .  A
C72         C304   1.495   1_556  S
O73          C83   1.255       .  A
O73         Al75   1.893       .  S
O74          C87   1.263       .  A
O74         Al84   1.877       .  S
Al75         O88   1.936       .  S
Al75         O85   1.919       .  S
Al75         O80   1.790       .  S
O76          C83   1.260       .  A
O76         Al84   1.921       .  S
O77          C86   1.256       .  A
O77         Al84   1.918       .  S
O78         Al84   1.874       .  S
O79          C86   1.255       .  A
O80         Al84   1.782       .  S
O81          C82   1.272       .  A
C82         C276   1.499       .  S
C83         C265   1.471       .  S
C86         C500   1.490       .  S
C87          O88   1.268       .  A
C87         C248   1.461       .  S
O89         C104   1.250       .  A
O89         Al97   1.834       .  S
C90         O100   1.266       .  A
C90          O91   1.281       .  A
C90         C433   1.500       .  S
O91        Al605   1.983       .  S
O92          C94   1.262       .  A
O92         Al93   1.899       .  S
Al93        O103   1.967       .  S
Al93        O603   1.983   1_545  S
Al93        O613   1.905   1_545  S
Al93        O102   1.786       .  S
C94         O107   1.265       .  A
C94         C220   1.504       .  S
O95         C105   1.258       .  A
O95         Al97   1.900       .  S
O96         C109   1.261       .  A
O96        Al106   1.879       .  S
Al97        O110   1.937       .  S
Al97        O107   1.932       .  S
Al97        O102   1.786       .  S
O98         C105   1.260       .  A
O98        Al106   1.921       .  S
O99         C108   1.255       .  A
O99        Al618   1.911       .  S
O100       Al618   1.867       .  S
O101        C108   1.256       .  A
O101       Al605   1.905       .  S
O102       Al106   1.779       .  S
O103        C104   1.271       .  A
C104        C262   1.493       .  S
C105        C279   1.477       .  S
Al106       O611   1.911   1_545  S
Al106       O612   1.867       .  S
C108        C206   1.486       .  S
C109        O110   1.269       .  A
C109        C349   1.459       .  S
O111        C126   1.250       .  A
O111       Al119   1.866       .  S
C112        O122   1.264       .  A
C112        O113   1.271       .  A
C112        C360   1.483       .  S
O113       Al115   1.958       .  S
O114        C116   1.265       .  A
O114       Al115   1.893       .  S
Al115       O123   1.910       .  S
Al115       O125   1.947       .  S
Al115       O124   1.778       .  S
C116        O129   1.268       .  A
C116        C192   1.490       .  S
O117        C127   1.258       .  A
O117       Al119   1.893       .  S
O118        C131   1.258       .  A
O118       Al128   1.875       .  S
Al119       O132   1.916       .  S
Al119       O129   1.934       .  S
Al119       O124   1.783       .  S
O120        C127   1.266       .  A
O120       Al128   1.933       .  S
O121        C130   1.265       .  A
O121       Al128   1.937       .  S
O122       Al128   1.891       .  S
O123        C130   1.262       .  A
O124       Al128   1.773       .  S
O125        C126   1.265       .  A
C126        C461   1.467       .  S
C127        C475   1.477       .  S
C130        C223   1.502       .  S
C131        O132   1.264       .  A
C131        C251   1.450       .  S
O133        C148   1.247       .  A
O133       Al141   1.841       .  S
C134        O144   1.264   1_545  A
C134        O135   1.280       .  A
C134        C290   1.489       .  S
O135       Al649   1.985   1_545  S
O136        C138   1.255       .  A
O136       Al137   1.868       .  S
Al137       O147   1.966       .  S
Al137       O647   1.985       .  S
Al137       O657   1.873       .  S
Al137       O146   1.776       .  S
C138        O151   1.266       .  A
C138        C178   1.494       .  S
O139        C149   1.255       .  A
O139       Al141   1.889       .  S
O140        C153   1.261       .  A
O140       Al150   1.870       .  S
Al141       O154   1.938       .  S
Al141       O151   1.941       .  S
Al141       O146   1.784       .  S
O142        C149   1.263       .  A
O142       Al150   1.935       .  S
O143        C152   1.264       .  A
O143       Al662   1.948   1_545  S
O144       Al662   1.876       .  S
O145        C152   1.249   1_565  A
O145       Al649   1.873       .  S
O146       Al150   1.785       .  S
O147        C148   1.272       .  A
C148        C402   1.497       .  S
C149        C388   1.475       .  S
Al150       O655   1.948       .  S
Al150       O656   1.876       .  S
C152        C195   1.495       .  S
C153        O154   1.270       .  A
C153        C447   1.452       .  S
O155        C170   1.251       .  A
O155       Al163   1.846       .  S
C156        O166   1.267       .  A
C156        O157   1.279       .  A
C156        C237   1.487       .  S
O157       Al159   1.981       .  S
O158        C160   1.260       .  A
O158       Al159   1.875       .  S
Al159       O167   1.908       .  S
Al159       O169   1.968       .  S
Al159       O168   1.779       .  S
C160        O173   1.269       .  A
C160        C209   1.488   1_554  S
O161        C171   1.257       .  A
O161       Al163   1.912       .  S
O162        C175   1.265       .  A
O162       Al172   1.876       .  S
Al163       O176   1.952       .  S
Al163       O173   1.941       .  S
Al163       O168   1.775       .  S
O164        C171   1.260       .  A
O164       Al172   1.924       .  S
O165        C174   1.262       .  A
O165       Al172   1.925       .  S
O166       Al172   1.894       .  S
O167        C174   1.259       .  A
O168       Al172   1.775       .  S
O169        C170   1.270       .  A
C170        C332   1.497       .  S
C171        C321   1.480       .  S
C174        C181   1.492       .  S
C175        O176   1.274       .  A
C175        C416   1.487       .  S
C177        C178   1.410       .  A
C177        C182   1.401       .  A
C177        H184   1.085       .  S
C178        C179   1.412       .  A
C179        C180   1.402       .  A
C179        N186   1.427       .  S
C180        C181   1.408       .  A
C180        H185   1.085       .  S
C181        C182   1.414       .  A
C182        N183   1.430       .  S
N183        O187   1.262       .  A
N183        O188   1.262       .  A
N186        O190   1.262       .  A
N186        O189   1.262       .  A
C191        C192   1.402       .  A
C191        C196   1.396       .  A
C191        H198   1.085       .  S
C192        C193   1.415       .  A
C193        C194   1.407       .  A
C193        N200   1.430       .  S
C194        C195   1.407       .  A
C194        H199   1.085       .  S
C195        C196   1.420       .  A
C196        N197   1.430       .  S
N197        O713   1.262   1_545  A
N197        O714   1.262       .  A
N200        O204   1.262       .  A
N200        O203   1.262       .  A
O201        N709   1.262       .  A
O202        N709   1.262       .  A
C205        C206   1.407       .  A
C205        C210   1.404       .  A
C205        H212   1.086       .  S
C206        C207   1.410       .  A
C207        C208   1.399       .  A
C207        N214   1.428       .  S
C208        C209   1.407       .  A
C208        H213   1.086       .  S
C209        C210   1.414       .  A
C210        N211   1.429   1_556  S
N211        O215   1.262       .  A
N211        O216   1.262       .  A
N214        O218   1.262       .  A
N214        O729   1.262       .  A
O217        N726   1.262       .  A
C219        C220   1.410       .  A
C219        C224   1.405       .  A
C219        H226   1.084       .  S
C220        C221   1.417       .  A
C221        C222   1.408       .  A
C221        N228   1.429       .  S
C222        C223   1.408       .  A
C222        H227   1.084       .  S
C223        C224   1.415       .  A
C224        N225   1.429       .  S
N225        O229   1.262       .  A
N225        O230   1.262       .  A
N228        O232   1.262       .  A
N228        O231   1.262       .  A
C233        C234   1.411       .  A
C233        C238   1.399       .  A
C233        H240   1.086       .  S
C234        C235   1.418   1_556  A
C235        C236   1.414       .  A
C235        N242   1.428       .  S
C236        C237   1.406       .  A
C236        H241   1.086       .  S
C237        C238   1.406   1_554  A
C238        N239   1.429       .  S
N239        O243   1.262       .  A
N239        O244   1.261   1_556  A
N242        O246   1.262       .  A
N242        O245   1.262   1_554  A
C247        C248   1.401       .  A
C247        C252   1.398       .  A
C247        H254   1.100       .  S
C248        C249   1.412       .  A
C249        C250   1.382       .  A
C249        N256   1.426       .  S
C250        C251   1.385       .  A
C250        H255   1.120       .  S
C251        C252   1.409       .  A
C252        N253   1.428       .  S
N253        O257   1.261       .  A
N253        O258   1.261       .  A
N256        O260   1.260       .  A
N256        O259   1.262       .  A
C261        C262   1.415       .  A
C261        C266   1.395       .  A
C261        H268   1.086       .  S
C262        C263   1.410       .  A
C263        C264   1.406       .  A
C263        N270   1.427       .  S
C264        C265   1.406       .  A
C264        H269   1.087       .  S
C265        C266   1.401       .  A
C266        N267   1.429       .  S
N267        O271   1.262       .  A
N267        O272   1.262       .  A
N270        O274   1.262       .  A
N270        O273   1.262       .  A
C275        C276   1.415       .  A
C275        C280   1.396       .  A
C275        H282   1.085       .  S
C276        C277   1.412       .  A
C277       C1302   1.410       .  A
C277       N1308   1.427       .  S
C278        C279   1.408       .  A
C278       C1301   1.410   1_455  A
C278        H283   1.085       .  S
C279       C1304   1.402   1_455  A
C280       C1303   1.402       .  A
C280        N281   1.430       .  S
N281        O285   1.262       .  A
N281        O286   1.262       .  A
N284       C1301   1.427   1_455  S
N284        O288   1.262       .  A
N284        O287   1.262       .  A
C289        C290   1.405       .  A
C289        C294   1.416       .  A
C289        H296   1.085       .  S
C290        C291   1.409       .  A
C291        C292   1.398       .  A
C291        N810   1.428   1_545  S
C292        C293   1.408       .  A
C292        H297   1.085       .  S
C293        C294   1.420       .  A
C294        N295   1.427       .  S
N295        O299   1.262       .  A
N295        O300   1.262       .  A
N298        C803   1.428       .  S
N298        O302   1.260       .  A
N298        O301   1.262       .  A
C303        C304   1.407       .  A
C303        C308   1.400       .  A
C303        H310   1.086       .  S
C304        C305   1.416       .  A
C305        C306   1.404       .  A
C305        N312   1.429       .  S
C306        C307   1.408       .  A
C306        H311   1.085       .  S
C307        C308   1.414       .  A
C308        N309   1.428       .  S
N309       O1337   1.262       .  A
N309        O314   1.262       .  A
N312        O316   1.262       .  A
N312        O315   1.262       .  A
O313       N1333   1.262       .  A
C317        C318   1.409       .  A
C317        C322   1.407       .  A
C317        H324   1.086       .  S
C318        C319   1.408       .  A
C319        C320   1.400       .  A
C319        N326   1.428       .  S
C320        C321   1.404       .  A
C320        H325   1.086       .  S
C321        C322   1.407       .  A
C322        N323   1.427       .  S
N323        O327   1.262       .  A
N323        O328   1.262       .  A
N326        O330   1.262       .  A
N326        O329   1.261       .  A
C331        C332   1.414       .  A
C331        C336   1.396       .  A
C331        H338   1.084       .  S
C332        C845   1.413       .  A
C333        C334   1.408       .  A
C333        C844   1.413   1_545  A
C333        N340   1.428       .  S
C334        C335   1.407       .  A
C334        H339   1.086       .  S
C335        C848   1.401       .  A
C336        C847   1.401       .  A
C336        N337   1.429       .  S
N337        O341   1.262       .  A
N337        O854   1.262       .  A
N340        O344   1.262       .  A
N340        O343   1.262       .  A
O342        N849   1.262   1_565  A
C345        C346   1.399       .  A
C345        C350   1.395   1_554  A
C345        H352   1.086       .  S
C346        C347   1.412       .  A
C347        C348   1.397   1_554  A
C347        N354   1.428       .  S
C348        C349   1.398       .  A
C348        H353   1.086       .  S
C349        C350   1.408       .  A
C350        N351   1.428       .  S
N351        O355   1.262       .  A
N351        O356   1.261       .  A
N354        O358   1.261   1_455  A
N354        O357   1.262       .  A
C359        C360   1.406       .  A
C359        C364   1.413       .  A
C359        H366   1.085       .  S
C360        C361   1.405       .  A
C361        C362   1.393       .  A
C361        N368   1.428       .  S
C362        C363   1.409       .  A
C362        H367   1.085       .  S
C363        C364   1.419       .  A
C364        N365   1.428       .  S
N365        O369   1.262       .  A
N365        O370   1.261       .  A
N368        O372   1.261       .  A
N368        O371   1.262       .  A
C373        C374   1.410       .  A
C373        C378   1.405       .  A
C373        H380   1.082       .  S
C374        C375   1.416       .  A
C375        C376   1.398       .  A
C375        N382   1.428       .  S
C376        C377   1.402       .  A
C376        H381   1.083       .  S
C377        C378   1.412       .  A
C378        N379   1.429       .  S
N379        O383   1.262       .  A
N379        O384   1.262       .  A
N382        O386   1.262       .  A
N382        O385   1.262       .  A
C387        C388   1.410       .  A
C387        C392   1.409       .  A
C387        H394   1.086       .  S
C388        C389   1.399       .  A
C389       C1414   1.393       .  A
C389       N1420   1.427       .  S
C390        C391   1.414       .  A
C390       C1413   1.393       .  A
C390        H395   1.086       .  S
C391       C1416   1.411   1_455  A
C392       C1415   1.411       .  A
C392        N393   1.428       .  S
N393        O397   1.262       .  A
N393        O398   1.262       .  A
N396       C1413   1.427       .  S
N396        O400   1.262       .  A
N396        O399   1.262       .  A
C401        C402   1.404       .  A
C401        C406   1.408       .  A
C401        H408   1.085       .  S
C402        C403   1.428       .  A
C403        C404   1.395       .  A
C403        N410   1.430       .  S
C404        C405   1.393       .  A
C404        H409   1.087       .  S
C405        C406   1.416       .  A
C406        N407   1.428       .  S
N407        O411   1.262       .  A
N407        O412   1.262       .  A
N410        O414   1.262       .  A
N410        O413   1.262       .  A
C415        C416   1.408       .  A
C415        C420   1.394       .  A
C415        H422   1.086       .  S
C416        C417   1.417       .  A
C417        C418   1.402       .  A
C417        N424   1.428       .  S
C418        C419   1.398       .  A
C418        H423   1.086       .  S
C419        C420   1.405       .  A
C420        N421   1.430       .  S
N421        O425   1.262       .  A
N421        O426   1.262       .  A
N424        O428   1.262       .  A
N424        O427   1.262       .  A
C429        C430   1.405       .  A
C429        C434   1.412       .  A
C429       H1460   1.086       .  S
C430        C431   1.405       .  A
C431        C432   1.395       .  A
C431        N438   1.430   1_455  S
C432        C433   1.410       .  A
C432        H437   1.085       .  S
C433        C434   1.418       .  A
C434        N435   1.428       .  S
N435       O1463   1.262       .  A
N435        O440   1.262       .  A
H436       C1453   1.086       .  S
N438        O442   1.262       .  A
N438        O441   1.262       .  A
O439       N1459   1.262       .  A
C443        C444   1.408       .  A
C443        C448   1.391       .  A
C443        H450   1.086       .  S
C444        C445   1.414       .  A
C445        C446   1.398       .  A
C445        N452   1.428       .  S
C446        C447   1.397       .  A
C446        H451   1.087       .  S
C447        C448   1.401       .  A
C448        N449   1.431       .  S
N449        O453   1.262       .  A
N449        O454   1.261       .  A
N452        O456   1.261       .  A
N452        O455   1.261       .  A
C457        C462   1.391   1_565  A
C457        C970   1.404       .  A
C457        H464   1.085       .  S
C458        C459   1.409       .  A
C458        C969   1.404       .  A
C459        C460   1.408       .  A
C459        N466   1.427       .  S
C460        C973   1.406       .  A
C460        H465   1.083       .  S
C461        C462   1.404       .  A
C461        C972   1.406       .  A
C462        N463   1.428       .  S
N463        O467   1.260       .  A
N463        O468   1.262   1_545  A
N466        O470   1.262       .  A
N466        O469   1.262       .  A
C471        C472   1.402       .  A
C471        C476   1.407       .  A
C471        H478   1.083       .  S
C472        C473   1.421       .  A
C473        C474   1.397       .  A
C473        N480   1.430       .  S
C474        C475   1.394       .  A
C474        H479   1.080       .  S
C475        C476   1.415       .  A
C476        N477   1.429       .  S
N477        O481   1.262       .  A
N477        O482   1.261       .  A
N480        O484   1.262       .  A
N480        O483   1.263       .  A
C485        C486   1.403       .  A
C485        C490   1.402       .  A
C485        H492   1.086       .  S
C486        C487   1.418       .  A
C487        C488   1.403       .  A
C487        N494   1.428       .  S
C488        C489   1.403       .  A
C488        H493   1.086       .  S
C489        C490   1.418       .  A
C490        N491   1.428       .  S
N491        O495   1.262       .  A
N491        O496   1.262       .  A
N494        O498   1.261       .  A
N494        O497   1.262       .  A
C499        C500   1.405       .  A
C499        C504   1.405       .  A
C499        H506   1.084       .  S
C500        C501   1.410       .  A
C501        C502   1.405       .  A
C501        N508   1.430       .  S
C502        C503   1.409       .  A
C502        H507   1.084       .  S
C503        C504   1.416       .  A
C504        N505   1.429       .  S
N505        O509   1.262       .  A
N505        O510   1.262       .  A
N508        O512   1.262       .  A
N508        O511   1.262       .  A
O513        C528   1.248       .  A
O513       Al521   1.841       .  S
C514       O1548   1.265       .  A
C514        O515   1.278       .  A
C514        C942   1.480   1_655  S
O515      Al1541   1.973       .  S
O516        C518   1.263       .  A
O516       Al517   1.895       .  S
Al517      O1539   1.973       .  S
Al517      O1549   1.909       .  S
Al517       O527   1.949       .  S
Al517       O526   1.779       .  S
C518        O531   1.268       .  A
C518       C1015   1.494       .  S
O519        C529   1.255       .  A
O519       Al521   1.907       .  S
O520        C533   1.264       .  A
O520       Al530   1.865       .  S
Al521       O534   1.952       .  S
Al521       O531   1.933       .  S
Al521       O526   1.785       .  S
O522        C529   1.257       .  A
O522       Al530   1.897       .  S
O523        C532   1.257       .  A
O523      Al1554   1.924   1_455  S
O524       C1538   1.265       .  A
O524       Al530   1.878       .  S
O525        C532   1.259   1_655  A
O525      Al1541   1.909       .  S
O526       Al530   1.780       .  S
O527        C528   1.267       .  A
C528        C984   1.490       .  S
C529        C970   1.479       .  S
Al530      O1547   1.924       .  S
C532        C998   1.494       .  S
C533        O534   1.273       .  A
C533        C956   1.478       .  S
O535        C550   1.247       .  A
O535       Al543   1.827       .  S
C536        O546   1.263       .  A
C536        O537   1.277       .  A
C536        C875   1.500       .  S
O537       Al539   1.980       .  S
O538        C540   1.257       .  A
O538       Al539   1.882       .  S
Al539       O547   1.882       .  S
Al539       O549   1.971       .  S
Al539       O548   1.796       .  S
C540        O553   1.269       .  A
C540       C1001   1.494       .  S
O541        C551   1.255       .  A
O541       Al543   1.897       .  S
O542        C555   1.261       .  A
O542       Al552   1.874       .  S
Al543       O556   1.938       .  S
Al543       O553   1.933       .  S
Al543       O548   1.787       .  S
O544        C551   1.259       .  A
O544       Al552   1.903       .  S
O545        C554   1.259       .  A
O545       Al552   1.924       .  S
O546       Al552   1.866       .  S
O547        C554   1.254       .  A
O548       Al552   1.782       .  S
O549        C550   1.269       .  A
C550        C903   1.494       .  S
C551        C917   1.478       .  S
C554        C889   1.485       .  S
C555        O556   1.269       .  A
C555        C931   1.464       .  S
O557        C572   1.252       .  A
O557       Al565   1.864       .  S
C558        O568   1.265       .  A
C558        O559   1.277       .  A
C558        C805   1.506       .  S
O559      Al1585   1.985       .  S
O560        C562   1.263       .  A
O560       Al561   1.893       .  S
Al561      O1583   1.985   1_455  S
Al561      O1593   1.910   1_455  S
Al561       O571   1.967       .  S
Al561       O570   1.780       .  S
C562        O575   1.269       .  A
C562        C886   1.494       .  S
O563        C573   1.259       .  A
O563       Al565   1.896       .  S
O564        C577   1.259       .  A
O564       Al574   1.882       .  S
Al565       O578   1.929       .  S
Al565       O575   1.936       .  S
Al565       O570   1.777       .  S
O566        C573   1.265       .  A
O566       Al574   1.935       .  S
O567        C576   1.263       .  A
O567      Al1598   1.924       .  S
O568      Al1598   1.881       .  S
O569        C576   1.261       .  A
O569      Al1585   1.910       .  S
O570       Al574   1.772       .  S
O571        C572   1.270       .  A
C572        C830   1.481       .  S
C573        C847   1.476       .  S
Al574      O1591   1.924   1_455  S
Al574      O1592   1.881       .  S
C576        C819   1.494       .  S
C577        O578   1.267       .  A
C577        C858   1.464       .  S
O579        C594   1.251       .  A
O579       Al587   1.838       .  S
C580        O590   1.267       .  A
C580        O581   1.282       .  A
C580        C746   1.504       .  S
O581       Al583   1.985       .  S
O582        C584   1.260       .  A
O582       Al583   1.890       .  S
Al583       O591   1.901       .  S
Al583       O593   1.974       .  S
Al583       O592   1.783       .  S
C584        O597   1.262       .  A
C584        C816   1.495   1_556  S
O585        C595   1.255       .  A
O585       Al587   1.893       .  S
O586        C599   1.263       .  A
O586       Al596   1.877       .  S
Al587       O600   1.935       .  S
Al587       O597   1.918       .  S
Al587       O592   1.790       .  S
O588        C595   1.260       .  A
O588       Al596   1.921       .  S
O589        C598   1.256       .  A
O589       Al596   1.918       .  S
O590       Al596   1.875       .  S
O591        C598   1.255       .  A
O592       Al596   1.782       .  S
O593        C594   1.272       .  A
C594        C788   1.499       .  S
C595        C777   1.471       .  S
C598       C1012   1.491       .  S
C599        O600   1.268       .  A
C599        C760   1.461       .  S
O601        C616   1.250       .  A
O601       Al609   1.834       .  S
C602        O612   1.266   1_565  A
C602        O603   1.281       .  A
C602        C945   1.500       .  S
O604        C606   1.262       .  A
O604       Al605   1.899       .  S
Al605       O615   1.967       .  S
Al605       O614   1.786       .  S
C606        O619   1.265       .  A
C606        C732   1.504       .  S
O607        C617   1.258       .  A
O607       Al609   1.900       .  S
O608        C621   1.261       .  A
O608       Al618   1.879       .  S
Al609       O622   1.937       .  S
Al609       O619   1.932       .  S
Al609       O614   1.787       .  S
O610        C617   1.260       .  A
O610       Al618   1.921       .  S
O611        C620   1.255       .  A
O613        C620   1.256       .  A
O614       Al618   1.779       .  S
O615        C616   1.271       .  A
C616        C774   1.493       .  S
C617        C791   1.477       .  S
C620        C718   1.486       .  S
C621        O622   1.269       .  A
C621        C861   1.459       .  S
O623        C638   1.250       .  A
O623       Al631   1.866       .  S
C624        O634   1.264       .  A
C624        O625   1.271       .  A
C624        C872   1.484       .  S
O625       Al627   1.958       .  S
O626        C628   1.265       .  A
O626       Al627   1.893       .  S
Al627       O635   1.910       .  S
Al627       O637   1.947       .  S
Al627       O636   1.778       .  S
C628        O641   1.268       .  A
C628        C704   1.490       .  S
O629        C639   1.258       .  A
O629       Al631   1.893       .  S
O630        C643   1.258       .  A
O630       Al640   1.875       .  S
Al631       O644   1.916       .  S
Al631       O641   1.935       .  S
Al631       O636   1.783       .  S
O632        C639   1.266       .  A
O632       Al640   1.933       .  S
O633        C642   1.265       .  A
O633       Al640   1.937       .  S
O634       Al640   1.891       .  S
O635        C642   1.262       .  A
O636       Al640   1.772       .  S
O637        C638   1.265       .  A
C638        C973   1.467       .  S
C639        C987   1.477       .  S
C642        C735   1.502       .  S
C643        O644   1.264       .  A
C643        C763   1.450       .  S
O645        C660   1.247       .  A
O645       Al653   1.841       .  S
C646        O656   1.264       .  A
C646        O647   1.280       .  A
C646        C802   1.489       .  S
O648        C650   1.255       .  A
O648       Al649   1.867       .  S
Al649       O659   1.967       .  S
Al649       O658   1.776       .  S
C650        O663   1.267       .  A
C650        C690   1.494       .  S
O651        C661   1.255       .  A
O651       Al653   1.889       .  S
O652        C665   1.261       .  A
O652       Al662   1.869       .  S
Al653       O666   1.938       .  S
Al653       O663   1.942       .  S
Al653       O658   1.784       .  S
O654        C661   1.263       .  A
O654       Al662   1.936       .  S
O655        C664   1.264       .  A
O657        C664   1.249       .  A
O658       Al662   1.785       .  S
O659        C660   1.272       .  A
C660        C914   1.497       .  S
C661        C900   1.476       .  S
C664        C707   1.495       .  S
C665        O666   1.270       .  A
C665        C959   1.451       .  S
O667        C682   1.251       .  A
O667       Al675   1.847       .  S
C668        O678   1.267       .  A
C668        O669   1.279       .  A
C668        C749   1.486       .  S
O669       Al671   1.980       .  S
O670        C672   1.260       .  A
O670       Al671   1.875       .  S
Al671       O679   1.907       .  S
Al671       O681   1.968       .  S
Al671       O680   1.779       .  S
C672        O685   1.269       .  A
C672        C721   1.488   1_554  S
O673        C683   1.257       .  A
O673       Al675   1.911       .  S
O674        C687   1.265       .  A
O674       Al684   1.876       .  S
Al675       O688   1.952       .  S
Al675       O685   1.941       .  S
Al675       O680   1.775       .  S
O676        C683   1.260       .  A
O676       Al684   1.924       .  S
O677        C686   1.262       .  A
O677       Al684   1.925       .  S
O678       Al684   1.894       .  S
O679        C686   1.259       .  A
O680       Al684   1.775       .  S
O681        C682   1.269       .  A
C682        C844   1.497       .  S
C683        C833   1.480       .  S
C686        C693   1.491       .  S
C687        O688   1.273       .  A
C687        C928   1.487       .  S
C689        C690   1.410       .  A
C689        C694   1.400       .  A
C689        H696   1.085       .  S
C690        C691   1.412       .  A
C691        C692   1.402       .  A
C691        N698   1.427       .  S
C692        C693   1.408       .  A
C692        H697   1.085       .  S
C693        C694   1.414       .  A
C694        N695   1.430       .  S
N695        O699   1.262       .  A
N695        O700   1.262       .  A
N698        O702   1.262       .  A
N698        O701   1.262       .  A
C703        C704   1.402       .  A
C703        C708   1.396       .  A
C703        H710   1.085       .  S
C704        C705   1.415       .  A
C705        C706   1.407       .  A
C705        N712   1.430       .  S
C706        C707   1.407       .  A
C706        H711   1.085       .  S
C707        C708   1.420       .  A
C708        N709   1.430       .  S
N712        O716   1.262       .  A
N712        O715   1.262       .  A
C717        C718   1.407       .  A
C717        C722   1.403       .  A
C717        H724   1.086       .  S
C718        C719   1.410       .  A
C719        C720   1.399       .  A
C719        N726   1.428       .  S
C720        C721   1.407       .  A
C720        H725   1.086       .  S
C721        C722   1.414       .  A
C722        N723   1.429   1_556  S
N723        O727   1.262       .  A
N723        O728   1.262       .  A
N726        O730   1.262       .  A
C731        C732   1.410       .  A
C731        C736   1.405       .  A
C731        H738   1.084       .  S
C732        C733   1.417       .  A
C733        C734   1.408       .  A
C733        N740   1.429       .  S
C734        C735   1.408       .  A
C734        H739   1.084       .  S
C735        C736   1.415       .  A
C736        N737   1.429       .  S
N737        O741   1.262       .  A
N737        O742   1.262       .  A
N740        O744   1.262       .  A
N740        O743   1.262       .  A
C745        C746   1.411       .  A
C745        C750   1.399       .  A
C745        H752   1.086       .  S
C746        C747   1.418   1_556  A
C747        C748   1.414       .  A
C747        N754   1.428       .  S
C748        C749   1.406       .  A
C748        H753   1.086       .  S
C749        C750   1.406   1_554  A
C750        N751   1.429       .  S
N751        O755   1.262       .  A
N751        O756   1.261   1_556  A
N754        O758   1.262       .  A
N754        O757   1.262   1_554  A
C759        C760   1.401       .  A
C759        C764   1.398       .  A
C759        H766   1.100       .  S
C760        C761   1.412       .  A
C761        C762   1.382       .  A
C761        N768   1.426       .  S
C762        C763   1.385       .  A
C762        H767   1.120       .  S
C763        C764   1.409       .  A
C764        N765   1.428       .  S
N765        O769   1.261       .  A
N765        O770   1.261       .  A
N768        O772   1.260       .  A
N768        O771   1.262       .  A
C773        C774   1.415       .  A
C773        C778   1.395       .  A
C773        H780   1.086       .  S
C774        C775   1.410       .  A
C775        C776   1.406       .  A
C775        N782   1.427       .  S
C776        C777   1.406       .  A
C776        H781   1.087       .  S
C777        C778   1.401       .  A
C778        N779   1.429       .  S
N779        O783   1.262       .  A
N779        O784   1.262       .  A
N782        O786   1.262       .  A
N782        O785   1.262       .  A
C787        C788   1.415       .  A
C787        C792   1.396       .  A
C787        H794   1.085       .  S
C788        C789   1.412       .  A
C789       C1814   1.410       .  A
C789       N1820   1.427       .  S
C790       C1813   1.410   1_455  A
C790        C791   1.408       .  A
C790        H795   1.085       .  S
C791       C1816   1.403   1_455  A
C792       C1815   1.403       .  A
C792        N793   1.430       .  S
N793        O797   1.262       .  A
N793        O798   1.262       .  A
N796       C1813   1.427   1_455  S
N796        O800   1.262       .  A
N796        O799   1.262       .  A
C801        C802   1.405       .  A
C801        C806   1.416       .  A
C801        H808   1.085       .  S
C802        C803   1.409       .  A
C803        C804   1.398       .  A
C804        C805   1.408       .  A
C804        H809   1.085       .  S
C805        C806   1.420       .  A
C806        N807   1.427       .  S
N807        O811   1.262       .  A
N807        O812   1.262       .  A
N810        O814   1.260       .  A
N810        O813   1.262       .  A
C815        C816   1.407       .  A
C815        C820   1.400       .  A
C815        H822   1.086       .  S
C816        C817   1.416       .  A
C817        C818   1.404       .  A
C817        N824   1.429       .  S
C818        C819   1.408       .  A
C818        H823   1.085       .  S
C819        C820   1.414       .  A
C820        N821   1.428       .  S
N821       O1849   1.262       .  A
N821        O826   1.262       .  A
N824        O828   1.262       .  A
N824        O827   1.262       .  A
O825       N1845   1.262       .  A
C829        C830   1.410       .  A
C829        C834   1.406       .  A
C829        H836   1.086       .  S
C830        C831   1.408       .  A
C831        C832   1.400       .  A
C831        N838   1.428       .  S
C832        C833   1.404       .  A
C832        H837   1.086       .  S
C833        C834   1.407       .  A
C834        N835   1.427       .  S
N835        O839   1.262       .  A
N835        O840   1.262       .  A
N838        O842   1.262       .  A
N838        O841   1.261       .  A
C843        C844   1.414       .  A
C843        C848   1.396   1_565  A
C843        H850   1.084       .  S
C845        C846   1.408       .  A
C845        N852   1.428       .  S
C846        C847   1.407       .  A
C846        H851   1.086       .  S
C848        N849   1.429       .  S
N849        O853   1.262   1_545  A
N852        O856   1.262       .  A
N852        O855   1.262       .  A
C857        C858   1.399       .  A
C857        C862   1.395   1_554  A
C857        H864   1.086       .  S
C858        C859   1.412       .  A
C859        C860   1.397   1_554  A
C859        N866   1.428       .  S
C860        C861   1.398       .  A
C860        H865   1.086       .  S
C861        C862   1.408       .  A
C862        N863   1.428       .  S
N863        O867   1.262       .  A
N863        O868   1.261       .  A
N866        O870   1.261   1_455  A
N866        O869   1.262       .  A
C871        C872   1.406       .  A
C871        C876   1.413       .  A
C871        H878   1.085       .  S
C872        C873   1.405       .  A
C873        C874   1.394       .  A
C873        N880   1.428       .  S
C874        C875   1.409       .  A
C874        H879   1.085       .  S
C875        C876   1.419       .  A
C876        N877   1.428       .  S
N877        O881   1.262       .  A
N877        O882   1.261       .  A
N880        O884   1.261       .  A
N880        O883   1.262       .  A
C885        C886   1.410       .  A
C885        C890   1.405       .  A
C885        H892   1.082       .  S
C886        C887   1.416       .  A
C887        C888   1.398       .  A
C887        N894   1.428       .  S
C888        C889   1.402       .  A
C888        H893   1.083       .  S
C889        C890   1.412       .  A
C890        N891   1.429       .  S
N891        O895   1.262       .  A
N891        O896   1.262       .  A
N894        O898   1.262       .  A
N894        O897   1.262       .  A
C899        C900   1.410       .  A
C899        C904   1.409       .  A
C899        H906   1.086       .  S
C900        C901   1.399       .  A
C901       C1926   1.393       .  A
C901       N1932   1.427       .  S
C902       C1925   1.393       .  A
C902        C903   1.414       .  A
C902        H907   1.086       .  S
C903       C1928   1.411   1_455  A
C904       C1927   1.411       .  A
C904        N905   1.428       .  S
N905        O909   1.262       .  A
N905        O910   1.262       .  A
N908       C1925   1.427       .  S
N908        O912   1.262       .  A
N908        O911   1.262       .  A
C913        C914   1.404       .  A
C913        C918   1.408       .  A
C913        H920   1.085       .  S
C914        C915   1.428       .  A
C915        C916   1.395       .  A
C915        N922   1.430       .  S
C916        C917   1.393       .  A
C916        H921   1.087       .  S
C917        C918   1.416       .  A
C918        N919   1.428       .  S
N919        O923   1.262       .  A
N919        O924   1.262       .  A
N922        O926   1.262       .  A
N922        O925   1.262       .  A
C927        C928   1.408       .  A
C927        C932   1.394       .  A
C927        H934   1.086       .  S
C928        C929   1.417       .  A
C929        C930   1.402       .  A
C929        N936   1.428       .  S
C930        C931   1.398       .  A
C930        H935   1.086       .  S
C931        C932   1.405       .  A
C932        N933   1.430       .  S
N933        O937   1.262       .  A
N933        O938   1.262       .  A
N936        O940   1.262       .  A
N936        O939   1.262       .  A
C941        C942   1.405       .  A
C941        C946   1.412       .  A
C941       H1972   1.086       .  S
C942        C943   1.405       .  A
C943        C944   1.395       .  A
C943        N950   1.430   1_455  S
C944        C945   1.410       .  A
C944        H949   1.085       .  S
C945        C946   1.418       .  A
C946        N947   1.428       .  S
N947       O1975   1.262       .  A
N947        O952   1.262       .  A
H948       C1965   1.086       .  S
N950        O954   1.262       .  A
N950        O953   1.262       .  A
O951       N1971   1.262       .  A
C955        C956   1.408       .  A
C955        C960   1.391       .  A
C955        H962   1.086       .  S
C956        C957   1.414       .  A
C957        C958   1.398       .  A
C957        N964   1.428       .  S
C958        C959   1.397       .  A
C958        H963   1.087       .  S
C959        C960   1.401       .  A
C960        N961   1.431       .  S
N961        O965   1.262       .  A
N961        O966   1.261       .  A
N964        O968   1.261       .  A
N964        O967   1.261       .  A
C969        C974   1.391       .  A
C969        H976   1.086       .  S
C970        C971   1.409       .  A
C971        C972   1.408   1_565  A
C971        N978   1.427       .  S
C972        H977   1.083       .  S
C973        C974   1.404       .  A
C974        N975   1.427       .  S
N975        O979   1.260       .  A
N975        O980   1.262       .  A
N978        O982   1.262       .  A
N978        O981   1.262       .  A
C983        C984   1.402       .  A
C983        C988   1.407       .  A
C983        H990   1.083       .  S
C984        C985   1.421       .  A
C985        C986   1.397       .  A
C985        N992   1.430       .  S
C986        C987   1.394       .  A
C986        H991   1.080       .  S
C987        C988   1.415       .  A
C988        N989   1.429       .  S
N989        O993   1.262       .  A
N989        O994   1.261       .  A
N992        O996   1.262       .  A
N992        O995   1.263       .  A
C997        C998   1.403       .  A
C997       C1002   1.401       .  A
C997       H1004   1.086       .  S
C998        C999   1.418       .  A
C999       C1000   1.403       .  A
C999       N1006   1.428       .  S
C1000      C1001   1.403       .  A
C1000      H1005   1.086       .  S
C1001      C1002   1.418       .  A
C1002      N1003   1.428       .  S
N1003      O1007   1.262       .  A
N1003      O1008   1.262       .  A
N1006      O1010   1.261       .  A
N1006      O1009   1.262       .  A
C1011      C1012   1.405       .  A
C1011      C1016   1.405       .  A
C1011      H1018   1.084       .  S
C1012      C1013   1.410       .  A
C1013      C1014   1.405       .  A
C1013      N1020   1.430       .  S
C1014      C1015   1.409       .  A
C1014      H1019   1.084       .  S
C1015      C1016   1.416       .  A
C1016      N1017   1.429       .  S
N1017      O1021   1.262       .  A
N1017      O1022   1.262       .  A
N1020      O1024   1.262       .  A
N1020      O1023   1.262       .  A
O1025      C1040   1.248       .  A
O1025     Al1033   1.841       .  S
C1026      O1027   1.278       .  A
C1026      C1454   1.480       .  S
O1028      C1030   1.263       .  A
O1028     Al1029   1.896       .  S
Al1029     O1039   1.949       .  S
Al1029     O1038   1.779       .  S
C1030      O1043   1.268       .  A
C1030      C1527   1.494       .  S
O1031      C1041   1.255       .  A
O1031     Al1033   1.907       .  S
O1032      C1045   1.264       .  A
O1032     Al1042   1.865       .  S
Al1033     O1046   1.952       .  S
Al1033     O1043   1.932       .  S
Al1033     O1038   1.785       .  S
O1034      C1041   1.257       .  A
O1034     Al1042   1.897       .  S
O1035      C1044   1.257       .  A
O1036     Al1042   1.879       .  S
O1037      C1044   1.259       .  A
O1038     Al1042   1.780       .  S
O1039      C1040   1.267       .  A
C1040      C1496   1.490       .  S
C1041      C1482   1.479       .  S
C1044      C1510   1.494       .  S
C1045      O1046   1.273       .  A
C1045      C1468   1.478       .  S
O1047      C1062   1.247       .  A
O1047     Al1055   1.827       .  S
C1048      O1058   1.263       .  A
C1048      O1049   1.277       .  A
C1048      C1387   1.500       .  S
O1049     Al1051   1.980       .  S
O1050      C1052   1.257       .  A
O1050     Al1051   1.882       .  S
Al1051     O1059   1.882       .  S
Al1051     O1061   1.971       .  S
Al1051     O1060   1.796       .  S
C1052      O1065   1.269       .  A
C1052      C1513   1.494       .  S
O1053      C1063   1.255       .  A
O1053     Al1055   1.897       .  S
O1054      C1067   1.262       .  A
O1054     Al1064   1.875       .  S
Al1055     O1068   1.938       .  S
Al1055     O1065   1.933       .  S
Al1055     O1060   1.787       .  S
O1056      C1063   1.259       .  A
O1056     Al1064   1.903       .  S
O1057      C1066   1.259       .  A
O1057     Al1064   1.924       .  S
O1058     Al1064   1.865       .  S
O1059      C1066   1.254       .  A
O1060     Al1064   1.782       .  S
O1061      C1062   1.269       .  A
C1062      C1415   1.494       .  S
C1063      C1429   1.478       .  S
C1066      C1401   1.485       .  S
C1067      O1068   1.269       .  A
C1067      C1443   1.464       .  S
O1069      C1084   1.252       .  A
O1069     Al1077   1.865       .  S
C1070      O1080   1.265   1_655  A
C1070      O1071   1.277       .  A
C1070      C1317   1.506       .  S
O1072      C1074   1.263       .  A
O1072     Al1073   1.893       .  S
Al1073     O1083   1.967       .  S
Al1073     O1082   1.779       .  S
C1074      O1087   1.270       .  A
C1074      C1398   1.494       .  S
O1075      C1085   1.259       .  A
O1075     Al1077   1.896       .  S
O1076      C1089   1.259       .  A
O1076     Al1086   1.882       .  S
Al1077     O1090   1.929       .  S
Al1077     O1087   1.937       .  S
Al1077     O1082   1.777       .  S
O1078      C1085   1.265       .  A
O1078     Al1086   1.935       .  S
O1079      C1088   1.263       .  A
O1081      C1088   1.261       .  A
O1082     Al1086   1.772       .  S
O1083      C1084   1.270       .  A
C1084      C1342   1.480       .  S
C1085      C1359   1.476       .  S
C1088      C1331   1.494       .  S
C1089      O1090   1.267       .  A
C1089      C1370   1.464       .  S
O1091      C1106   1.251       .  A
O1091     Al1099   1.837       .  S
C1092      O1102   1.267       .  A
C1092      O1093   1.282       .  A
C1092      C1258   1.504       .  S
O1093     Al1095   1.986       .  S
O1094      C1096   1.260       .  A
O1094     Al1095   1.890       .  S
Al1095     O1103   1.901       .  S
Al1095     O1105   1.974       .  S
Al1095     O1104   1.783       .  S
C1096      O1109   1.262       .  A
C1096      C1328   1.495   1_556  S
O1097      C1107   1.255       .  A
O1097     Al1099   1.893       .  S
O1098      C1111   1.262       .  A
O1098     Al1108   1.877       .  S
Al1099     O1112   1.936       .  S
Al1099     O1109   1.919       .  S
Al1099     O1104   1.790       .  S
O1100      C1107   1.260       .  A
O1100     Al1108   1.921       .  S
O1101      C1110   1.256       .  A
O1101     Al1108   1.918       .  S
O1102     Al1108   1.874       .  S
O1103      C1110   1.255       .  A
O1104     Al1108   1.782       .  S
O1105      C1106   1.272       .  A
C1106      C1300   1.499       .  S
C1107      C1289   1.471       .  S
C1110      C1524   1.490       .  S
C1111      O1112   1.268       .  A
C1111      C1272   1.461       .  S
O1113      C1128   1.250       .  A
O1113     Al1121   1.834       .  S
C1114      O1124   1.266       .  A
C1114      O1115   1.281       .  A
C1114      C1457   1.500       .  S
O1115     Al1629   1.983       .  S
O1116      C1118   1.262       .  A
O1116     Al1117   1.899       .  S
Al1117     O1627   1.983   1_545  S
Al1117     O1637   1.905   1_545  S
Al1117     O1127   1.967       .  S
Al1117     O1126   1.786       .  S
C1118      O1131   1.265       .  A
C1118      C1244   1.504       .  S
O1119      C1129   1.258       .  A
O1119     Al1121   1.900       .  S
O1120      C1133   1.261       .  A
O1120     Al1130   1.879       .  S
Al1121     O1134   1.937       .  S
Al1121     O1131   1.932       .  S
Al1121     O1126   1.786       .  S
O1122      C1129   1.260       .  A
O1122     Al1130   1.921       .  S
O1123      C1132   1.255       .  A
O1123     Al1642   1.911       .  S
O1124     Al1642   1.867       .  S
O1125      C1132   1.256       .  A
O1125     Al1629   1.905       .  S
O1126     Al1130   1.779       .  S
O1127      C1128   1.271       .  A
C1128      C1286   1.493       .  S
C1129      C1303   1.477       .  S
Al1130     O1635   1.911   1_545  S
Al1130     O1636   1.867       .  S
C1132      C1230   1.486       .  S
C1133      O1134   1.269       .  A
C1133      C1373   1.459       .  S
O1135      C1150   1.250       .  A
O1135     Al1143   1.866       .  S
C1136      O1146   1.264       .  A
C1136      O1137   1.271       .  A
C1136      C1384   1.483       .  S
O1137     Al1139   1.958       .  S
O1138      C1140   1.265       .  A
O1138     Al1139   1.893       .  S
Al1139     O1147   1.910       .  S
Al1139     O1149   1.947       .  S
Al1139     O1148   1.778       .  S
C1140      O1153   1.268       .  A
C1140      C1216   1.490       .  S
O1141      C1151   1.258       .  A
O1141     Al1143   1.893       .  S
O1142      C1155   1.258       .  A
O1142     Al1152   1.875       .  S
Al1143     O1156   1.916       .  S
Al1143     O1153   1.934       .  S
Al1143     O1148   1.783       .  S
O1144      C1151   1.266       .  A
O1144     Al1152   1.933       .  S
O1145      C1154   1.265       .  A
O1145     Al1152   1.937       .  S
O1146     Al1152   1.891       .  S
O1147      C1154   1.262       .  A
O1148     Al1152   1.772       .  S
O1149      C1150   1.265       .  A
C1150      C1485   1.467       .  S
C1151      C1499   1.477       .  S
C1154      C1247   1.502       .  S
C1155      O1156   1.264       .  A
C1155      C1275   1.450       .  S
O1157      C1172   1.247       .  A
O1157     Al1165   1.841       .  S
C1158      O1168   1.264   1_545  A
C1158      O1159   1.280       .  A
C1158      C1314   1.489       .  S
O1159     Al1673   1.985   1_545  S
O1160      C1162   1.255       .  A
O1160     Al1161   1.868       .  S
Al1161     O1671   1.985       .  S
Al1161     O1681   1.873       .  S
Al1161     O1171   1.966       .  S
Al1161     O1170   1.776       .  S
C1162      O1175   1.266       .  A
C1162      C1202   1.494       .  S
O1163      C1173   1.255       .  A
O1163     Al1165   1.889       .  S
O1164      C1177   1.261       .  A
O1164     Al1174   1.870       .  S
Al1165     O1178   1.938       .  S
Al1165     O1175   1.941       .  S
Al1165     O1170   1.784       .  S
O1166      C1173   1.263       .  A
O1166     Al1174   1.935       .  S
O1167      C1176   1.264       .  A
O1167     Al1686   1.948   1_545  S
O1168     Al1686   1.876       .  S
O1169      C1176   1.249   1_565  A
O1169     Al1673   1.873       .  S
O1170     Al1174   1.785       .  S
O1171      C1172   1.272       .  A
C1172      C1426   1.497       .  S
C1173      C1412   1.475       .  S
Al1174     O1679   1.948       .  S
Al1174     O1680   1.876       .  S
C1176      C1219   1.495       .  S
C1177      O1178   1.270       .  A
C1177      C1471   1.452       .  S
O1179      C1194   1.251       .  A
O1179     Al1187   1.846       .  S
C1180      O1190   1.267       .  A
C1180      O1181   1.279       .  A
C1180      C1261   1.487       .  S
O1181     Al1183   1.981       .  S
O1182      C1184   1.260       .  A
O1182     Al1183   1.875       .  S
Al1183     O1191   1.908       .  S
Al1183     O1193   1.968       .  S
Al1183     O1192   1.779       .  S
C1184      O1197   1.269       .  A
C1184      C1233   1.488   1_554  S
O1185      C1195   1.257       .  A
O1185     Al1187   1.912       .  S
O1186      C1199   1.265       .  A
O1186     Al1196   1.876       .  S
Al1187     O1200   1.952       .  S
Al1187     O1197   1.941       .  S
Al1187     O1192   1.775       .  S
O1188      C1195   1.260       .  A
O1188     Al1196   1.924       .  S
O1189      C1198   1.262       .  A
O1189     Al1196   1.925       .  S
O1190     Al1196   1.894       .  S
O1191      C1198   1.259       .  A
O1192     Al1196   1.775       .  S
O1193      C1194   1.270       .  A
C1194      C1356   1.497       .  S
C1195      C1345   1.480       .  S
C1198      C1205   1.492       .  S
C1199      O1200   1.274       .  A
C1199      C1440   1.487       .  S
C1201      C1202   1.410       .  A
C1201      C1206   1.401       .  A
C1201      H1208   1.085       .  S
C1202      C1203   1.412       .  A
C1203      C1204   1.402       .  A
C1203      N1210   1.427       .  S
C1204      C1205   1.408       .  A
C1204      H1209   1.085       .  S
C1205      C1206   1.414       .  A
C1206      N1207   1.430       .  S
N1207      O1211   1.262       .  A
N1207      O1212   1.262       .  A
N1210      O1214   1.262       .  A
N1210      O1213   1.262       .  A
C1215      C1216   1.402       .  A
C1215      C1220   1.396       .  A
C1215      H1222   1.085       .  S
C1216      C1217   1.415       .  A
C1217      C1218   1.407       .  A
C1217      N1224   1.430       .  S
C1218      C1219   1.407       .  A
C1218      H1223   1.085       .  S
C1219      C1220   1.420       .  A
C1220      N1221   1.430       .  S
N1221      O1737   1.262   1_545  A
N1221      O1738   1.262       .  A
N1224      O1228   1.262       .  A
N1224      O1227   1.262       .  A
O1225      N1733   1.262       .  A
O1226      N1733   1.262       .  A
C1229      C1230   1.407       .  A
C1229      C1234   1.404       .  A
C1229      H1236   1.086       .  S
C1230      C1231   1.410       .  A
C1231      C1232   1.399       .  A
C1231      N1238   1.428       .  S
C1232      C1233   1.407       .  A
C1232      H1237   1.086       .  S
C1233      C1234   1.414       .  A
C1234      N1235   1.429   1_556  S
N1235      O1239   1.262       .  A
N1235      O1240   1.262       .  A
N1238      O1242   1.262       .  A
N1238      O1753   1.262       .  A
O1241      N1750   1.262       .  A
C1243      C1244   1.410       .  A
C1243      C1248   1.405       .  A
C1243      H1250   1.084       .  S
C1244      C1245   1.417       .  A
C1245      C1246   1.408       .  A
C1245      N1252   1.429       .  S
C1246      C1247   1.408       .  A
C1246      H1251   1.084       .  S
C1247      C1248   1.415       .  A
C1248      N1249   1.429       .  S
N1249      O1253   1.262       .  A
N1249      O1254   1.262       .  A
N1252      O1256   1.262       .  A
N1252      O1255   1.262       .  A
C1257      C1258   1.411       .  A
C1257      C1262   1.399       .  A
C1257      H1264   1.086       .  S
C1258      C1259   1.418   1_556  A
C1259      C1260   1.414       .  A
C1259      N1266   1.428       .  S
C1260      C1261   1.406       .  A
C1260      H1265   1.086       .  S
C1261      C1262   1.406   1_554  A
C1262      N1263   1.429       .  S
N1263      O1267   1.262       .  A
N1263      O1268   1.261   1_556  A
N1266      O1270   1.262       .  A
N1266      O1269   1.262   1_554  A
C1271      C1272   1.401       .  A
C1271      C1276   1.398       .  A
C1271      H1278   1.100       .  S
C1272      C1273   1.412       .  A
C1273      C1274   1.382       .  A
C1273      N1280   1.426       .  S
C1274      C1275   1.385       .  A
C1274      H1279   1.121       .  S
C1275      C1276   1.409       .  A
C1276      N1277   1.428       .  S
N1277      O1281   1.261       .  A
N1277      O1282   1.261       .  A
N1280      O1284   1.260       .  A
N1280      O1283   1.262       .  A
C1285      C1286   1.415       .  A
C1285      C1290   1.395       .  A
C1285      H1292   1.086       .  S
C1286      C1287   1.410       .  A
C1287      C1288   1.406       .  A
C1287      N1294   1.427       .  S
C1288      C1289   1.406       .  A
C1288      H1293   1.087       .  S
C1289      C1290   1.401       .  A
C1290      N1291   1.429       .  S
N1291      O1295   1.262       .  A
N1291      O1296   1.262       .  A
N1294      O1298   1.262       .  A
N1294      O1297   1.262       .  A
C1299      C1300   1.415       .  A
C1299      C1304   1.396       .  A
C1299      H1306   1.085       .  S
C1300      C1301   1.412       .  A
C1302      C1303   1.408       .  A
C1302      H1307   1.085       .  S
C1304      N1305   1.430       .  S
N1305      O1309   1.262       .  A
N1305      O1310   1.262       .  A
N1308      O1312   1.262       .  A
N1308      O1311   1.262       .  A
C1313      C1314   1.405       .  A
C1313      C1318   1.416       .  A
C1313      H1320   1.085       .  S
C1314      C1315   1.409       .  A
C1315      C1316   1.398       .  A
C1315      N1834   1.428   1_545  S
C1316      C1317   1.408       .  A
C1316      H1321   1.085       .  S
C1317      C1318   1.420       .  A
C1318      N1319   1.427       .  S
N1319      O1323   1.262       .  A
N1319      O1324   1.262       .  A
N1322      C1827   1.428       .  S
N1322      O1326   1.260       .  A
N1322      O1325   1.262       .  A
C1327      C1328   1.407       .  A
C1327      C1332   1.400       .  A
C1327      H1334   1.086       .  S
C1328      C1329   1.416       .  A
C1329      C1330   1.404       .  A
C1329      N1336   1.429       .  S
C1330      C1331   1.408       .  A
C1330      H1335   1.085       .  S
C1331      C1332   1.414       .  A
C1332      N1333   1.428       .  S
N1333      O1338   1.262       .  A
N1336      O1340   1.262       .  A
N1336      O1339   1.262       .  A
C1341      C1342   1.409       .  A
C1341      C1346   1.407       .  A
C1341      H1348   1.086       .  S
C1342      C1343   1.408       .  A
C1343      C1344   1.400       .  A
C1343      N1350   1.428       .  S
C1344      C1345   1.404       .  A
C1344      H1349   1.086       .  S
C1345      C1346   1.407       .  A
C1346      N1347   1.427       .  S
N1347      O1351   1.262       .  A
N1347      O1352   1.262       .  A
N1350      O1354   1.262       .  A
N1350      O1353   1.261       .  A
C1355      C1356   1.414       .  A
C1355      C1360   1.396       .  A
C1355      H1362   1.084       .  S
C1356      C1869   1.413       .  A
C1357      C1868   1.413   1_545  A
C1357      C1358   1.408       .  A
C1357      N1364   1.428       .  S
C1358      C1359   1.407       .  A
C1358      H1363   1.086       .  S
C1359      C1872   1.401       .  A
C1360      C1871   1.401       .  A
C1360      N1361   1.429       .  S
N1361      O1365   1.262       .  A
N1361      O1878   1.262       .  A
N1364      O1368   1.262       .  A
N1364      O1367   1.262       .  A
O1366      N1873   1.262   1_565  A
C1369      C1370   1.399       .  A
C1369      C1374   1.395   1_554  A
C1369      H1376   1.086       .  S
C1370      C1371   1.412       .  A
C1371      C1372   1.397   1_554  A
C1371      N1378   1.428       .  S
C1372      C1373   1.398       .  A
C1372      H1377   1.086       .  S
C1373      C1374   1.408       .  A
C1374      N1375   1.428       .  S
N1375      O1379   1.262       .  A
N1375      O1380   1.261       .  A
N1378      O1382   1.261       .  A
N1378      O1381   1.262       .  A
C1383      C1384   1.406       .  A
C1383      C1388   1.413       .  A
C1383      H1390   1.085       .  S
C1384      C1385   1.405       .  A
C1385      C1386   1.393       .  A
C1385      N1392   1.428       .  S
C1386      C1387   1.409       .  A
C1386      H1391   1.085       .  S
C1387      C1388   1.419       .  A
C1388      N1389   1.428       .  S
N1389      O1393   1.262       .  A
N1389      O1394   1.261       .  A
N1392      O1396   1.261       .  A
N1392      O1395   1.262       .  A
C1397      C1398   1.410       .  A
C1397      C1402   1.405       .  A
C1397      H1404   1.082       .  S
C1398      C1399   1.416       .  A
C1399      C1400   1.398       .  A
C1399      N1406   1.428       .  S
C1400      C1401   1.402       .  A
C1400      H1405   1.083       .  S
C1401      C1402   1.412       .  A
C1402      N1403   1.429       .  S
N1403      O1407   1.262       .  A
N1403      O1408   1.262       .  A
N1406      O1410   1.262       .  A
N1406      O1409   1.262       .  A
C1411      C1412   1.410       .  A
C1411      C1416   1.409       .  A
C1411      H1418   1.086       .  S
C1412      C1413   1.399   1_655  A
C1414      C1415   1.414       .  A
C1414      H1419   1.086       .  S
C1416      N1417   1.428       .  S
N1417      O1421   1.262       .  A
N1417      O1422   1.262       .  A
N1420      O1424   1.262       .  A
N1420      O1423   1.262       .  A
C1425      C1426   1.404       .  A
C1425      C1430   1.408       .  A
C1425      H1432   1.085       .  S
C1426      C1427   1.428       .  A
C1427      C1428   1.395       .  A
C1427      N1434   1.430       .  S
C1428      C1429   1.393       .  A
C1428      H1433   1.087       .  S
C1429      C1430   1.416       .  A
C1430      N1431   1.428       .  S
N1431      O1435   1.262       .  A
N1431      O1436   1.262       .  A
N1434      O1438   1.262       .  A
N1434      O1437   1.262       .  A
C1439      C1440   1.408       .  A
C1439      C1444   1.394       .  A
C1439      H1446   1.086       .  S
C1440      C1441   1.417       .  A
C1441      C1442   1.402       .  A
C1441      N1448   1.428       .  S
C1442      C1443   1.398       .  A
C1442      H1447   1.086       .  S
C1443      C1444   1.405       .  A
C1444      N1445   1.430       .  S
N1445      O1449   1.262       .  A
N1445      O1450   1.262       .  A
N1448      O1452   1.262       .  A
N1448      O1451   1.262       .  A
C1453      C1454   1.405       .  A
C1453      C1458   1.412       .  A
C1454      C1455   1.405       .  A
C1455      C1456   1.395       .  A
C1455      N1462   1.430       .  S
C1456      C1457   1.410       .  A
C1456      H1461   1.085       .  S
C1457      C1458   1.418       .  A
C1458      N1459   1.428       .  S
N1459      O1464   1.262       .  A
N1462      O1466   1.262       .  A
N1462      O1465   1.262       .  A
C1467      C1468   1.408       .  A
C1467      C1472   1.391       .  A
C1467      H1474   1.086       .  S
C1468      C1469   1.414       .  A
C1469      C1470   1.398       .  A
C1469      N1476   1.428       .  S
C1470      C1471   1.397       .  A
C1470      H1475   1.087       .  S
C1471      C1472   1.401       .  A
C1472      N1473   1.431       .  S
N1473      O1477   1.262       .  A
N1473      O1478   1.261       .  A
N1476      O1480   1.261       .  A
N1476      O1479   1.261       .  A
C1481      C1994   1.404       .  A
C1481      C1486   1.391   1_565  A
C1481      H1488   1.085       .  S
C1482      C1993   1.404       .  A
C1482      C1483   1.409       .  A
C1483      C1484   1.408       .  A
C1483      N1490   1.427       .  S
C1484      C1997   1.406       .  A
C1484      H1489   1.083       .  S
C1485      C1996   1.406       .  A
C1485      C1486   1.404       .  A
C1486      N1487   1.428       .  S
N1487      O1491   1.260       .  A
N1487      O1492   1.262   1_545  A
N1490      O1494   1.262       .  A
N1490      O1493   1.262       .  A
C1495      C1496   1.402       .  A
C1495      C1500   1.407       .  A
C1495      H1502   1.083       .  S
C1496      C1497   1.421       .  A
C1497      C1498   1.397       .  A
C1497      N1504   1.430       .  S
C1498      C1499   1.394       .  A
C1498      H1503   1.080       .  S
C1499      C1500   1.415       .  A
C1500      N1501   1.429       .  S
N1501      O1505   1.262       .  A
N1501      O1506   1.261       .  A
N1504      O1508   1.262       .  A
N1504      O1507   1.263       .  A
C1509      C1510   1.403       .  A
C1509      C1514   1.402       .  A
C1509      H1516   1.086       .  S
C1510      C1511   1.418       .  A
C1511      C1512   1.403       .  A
C1511      N1518   1.428       .  S
C1512      C1513   1.403       .  A
C1512      H1517   1.086       .  S
C1513      C1514   1.418       .  A
C1514      N1515   1.428       .  S
N1515      O1519   1.262       .  A
N1515      O1520   1.262       .  A
N1518      O1522   1.261       .  A
N1518      O1521   1.262       .  A
C1523      C1524   1.405       .  A
C1523      C1528   1.405       .  A
C1523      H1530   1.084       .  S
C1524      C1525   1.410       .  A
C1525      C1526   1.405       .  A
C1525      N1532   1.430       .  S
C1526      C1527   1.409       .  A
C1526      H1531   1.084       .  S
C1527      C1528   1.416       .  A
C1528      N1529   1.429       .  S
N1529      O1533   1.262       .  A
N1529      O1534   1.262       .  A
N1532      O1536   1.262       .  A
N1532      O1535   1.262       .  A
O1537      C1552   1.248       .  A
O1537     Al1545   1.841       .  S
C1538      O1539   1.278       .  A
C1538      C1966   1.480       .  S
O1540      C1542   1.263       .  A
O1540     Al1541   1.896       .  S
Al1541     O1551   1.949       .  S
Al1541     O1550   1.779       .  S
C1542      O1555   1.268       .  A
C1542      C2039   1.494       .  S
O1543      C1553   1.255       .  A
O1543     Al1545   1.907       .  S
O1544      C1557   1.264       .  A
O1544     Al1554   1.865       .  S
Al1545     O1558   1.952       .  S
Al1545     O1555   1.933       .  S
Al1545     O1550   1.785       .  S
O1546      C1553   1.257       .  A
O1546     Al1554   1.897       .  S
O1547      C1556   1.257       .  A
O1548     Al1554   1.878       .  S
O1549      C1556   1.259       .  A
O1550     Al1554   1.780       .  S
O1551      C1552   1.267       .  A
C1552      C2008   1.490       .  S
C1553      C1994   1.479       .  S
C1556      C2022   1.494       .  S
C1557      O1558   1.273       .  A
C1557      C1980   1.478       .  S
O1559      C1574   1.247       .  A
O1559     Al1567   1.827       .  S
C1560      O1570   1.263       .  A
C1560      O1561   1.277       .  A
C1560      C1899   1.500       .  S
O1561     Al1563   1.980       .  S
O1562      C1564   1.257       .  A
O1562     Al1563   1.882       .  S
Al1563     O1571   1.882       .  S
Al1563     O1573   1.971       .  S
Al1563     O1572   1.796       .  S
C1564      O1577   1.269       .  A
C1564      C2025   1.494       .  S
O1565      C1575   1.255       .  A
O1565     Al1567   1.897       .  S
O1566      C1579   1.261       .  A
O1566     Al1576   1.874       .  S
Al1567     O1580   1.938       .  S
Al1567     O1577   1.933       .  S
Al1567     O1572   1.787       .  S
O1568      C1575   1.259       .  A
O1568     Al1576   1.903       .  S
O1569      C1578   1.259       .  A
O1569     Al1576   1.924       .  S
O1570     Al1576   1.866       .  S
O1571      C1578   1.254       .  A
O1572     Al1576   1.782       .  S
O1573      C1574   1.269       .  A
C1574      C1927   1.494       .  S
C1575      C1941   1.478       .  S
C1578      C1913   1.485       .  S
C1579      O1580   1.269       .  A
C1579      C1955   1.464       .  S
O1581      C1596   1.252       .  A
O1581     Al1589   1.864       .  S
C1582      O1592   1.265   1_655  A
C1582      O1583   1.277       .  A
C1582      C1829   1.506       .  S
O1584      C1586   1.263       .  A
O1584     Al1585   1.893       .  S
Al1585     O1595   1.967       .  S
Al1585     O1594   1.779       .  S
C1586      O1599   1.269       .  A
C1586      C1910   1.494       .  S
O1587      C1597   1.259       .  A
O1587     Al1589   1.896       .  S
O1588      C1601   1.259       .  A
O1588     Al1598   1.882       .  S
Al1589     O1602   1.929       .  S
Al1589     O1599   1.936       .  S
Al1589     O1594   1.777       .  S
O1590      C1597   1.265       .  A
O1590     Al1598   1.935       .  S
O1591      C1600   1.263       .  A
O1593      C1600   1.261       .  A
O1594     Al1598   1.772       .  S
O1595      C1596   1.270       .  A
C1596      C1854   1.481       .  S
C1597      C1871   1.476       .  S
C1600      C1843   1.494       .  S
C1601      O1602   1.267       .  A
C1601      C1882   1.464       .  S
O1603      C1618   1.251       .  A
O1603     Al1611   1.838       .  S
C1604      O1614   1.267       .  A
C1604      O1605   1.282       .  A
C1604      C1770   1.504       .  S
O1605     Al1607   1.985       .  S
O1606      C1608   1.260       .  A
O1606     Al1607   1.890       .  S
Al1607     O1615   1.901       .  S
Al1607     O1617   1.974       .  S
Al1607     O1616   1.783       .  S
C1608      O1621   1.262       .  A
C1608      C1840   1.495   1_556  S
O1609      C1619   1.255       .  A
O1609     Al1611   1.893       .  S
O1610      C1623   1.262       .  A
O1610     Al1620   1.877       .  S
Al1611     O1624   1.935       .  S
Al1611     O1621   1.918       .  S
Al1611     O1616   1.790       .  S
O1612      C1619   1.260       .  A
O1612     Al1620   1.921       .  S
O1613      C1622   1.256       .  A
O1613     Al1620   1.918       .  S
O1614     Al1620   1.875       .  S
O1615      C1622   1.255       .  A
O1616     Al1620   1.782       .  S
O1617      C1618   1.272       .  A
C1618      C1812   1.499       .  S
C1619      C1801   1.471       .  S
C1622      C2036   1.491       .  S
C1623      O1624   1.268       .  A
C1623      C1784   1.461       .  S
O1625      C1640   1.250       .  A
O1625     Al1633   1.834       .  S
C1626      O1636   1.266   1_565  A
C1626      O1627   1.281       .  A
C1626      C1969   1.500       .  S
O1628      C1630   1.262       .  A
O1628     Al1629   1.899       .  S
Al1629     O1639   1.967       .  S
Al1629     O1638   1.786       .  S
C1630      O1643   1.265       .  A
C1630      C1756   1.504       .  S
O1631      C1641   1.258       .  A
O1631     Al1633   1.900       .  S
O1632      C1645   1.261       .  A
O1632     Al1642   1.879       .  S
Al1633     O1646   1.937       .  S
Al1633     O1643   1.932       .  S
Al1633     O1638   1.787       .  S
O1634      C1641   1.260       .  A
O1634     Al1642   1.921       .  S
O1635      C1644   1.255       .  A
O1637      C1644   1.256       .  A
O1638     Al1642   1.779       .  S
O1639      C1640   1.271       .  A
C1640      C1798   1.493       .  S
C1641      C1815   1.477       .  S
C1644      C1742   1.486       .  S
C1645      O1646   1.269       .  A
C1645      C1885   1.459       .  S
O1647      C1662   1.250       .  A
O1647     Al1655   1.866       .  S
C1648      O1658   1.264       .  A
C1648      O1649   1.271       .  A
C1648      C1896   1.484       .  S
O1649     Al1651   1.958       .  S
O1650      C1652   1.265       .  A
O1650     Al1651   1.893       .  S
Al1651     O1659   1.910       .  S
Al1651     O1661   1.947       .  S
Al1651     O1660   1.778       .  S
C1652      O1665   1.268       .  A
C1652      C1728   1.490       .  S
O1653      C1663   1.258       .  A
O1653     Al1655   1.893       .  S
O1654      C1667   1.258       .  A
O1654     Al1664   1.875       .  S
Al1655     O1668   1.916       .  S
Al1655     O1665   1.935       .  S
Al1655     O1660   1.783       .  S
O1656      C1663   1.266       .  A
O1656     Al1664   1.933       .  S
O1657      C1666   1.265       .  A
O1657     Al1664   1.937       .  S
O1658     Al1664   1.891       .  S
O1659      C1666   1.262       .  A
O1660     Al1664   1.772       .  S
O1661      C1662   1.265       .  A
C1662      C1997   1.467       .  S
C1663      C2011   1.477       .  S
C1666      C1759   1.502       .  S
C1667      O1668   1.264       .  A
C1667      C1787   1.450       .  S
O1669      C1684   1.247       .  A
O1669     Al1677   1.841       .  S
C1670      O1680   1.264       .  A
C1670      O1671   1.280       .  A
C1670      C1826   1.489       .  S
O1672      C1674   1.255       .  A
O1672     Al1673   1.867       .  S
Al1673     O1683   1.966       .  S
Al1673     O1682   1.776       .  S
C1674      O1687   1.267       .  A
C1674      C1714   1.494       .  S
O1675      C1685   1.255       .  A
O1675     Al1677   1.889       .  S
O1676      C1689   1.261       .  A
O1676     Al1686   1.869       .  S
Al1677     O1690   1.938       .  S
Al1677     O1687   1.942       .  S
Al1677     O1682   1.784       .  S
O1678      C1685   1.263       .  A
O1678     Al1686   1.936       .  S
O1679      C1688   1.264       .  A
O1681      C1688   1.249       .  A
O1682     Al1686   1.785       .  S
O1683      C1684   1.272       .  A
C1684      C1938   1.497       .  S
C1685      C1924   1.476       .  S
C1688      C1731   1.495       .  S
C1689      O1690   1.270       .  A
C1689      C1983   1.451       .  S
O1691      C1706   1.251       .  A
O1691     Al1699   1.847       .  S
C1692      O1702   1.267       .  A
C1692      O1693   1.279       .  A
C1692      C1773   1.486       .  S
O1693     Al1695   1.979       .  S
O1694      C1696   1.260       .  A
O1694     Al1695   1.875       .  S
Al1695     O1703   1.907       .  S
Al1695     O1705   1.968       .  S
Al1695     O1704   1.779       .  S
C1696      O1709   1.269       .  A
C1696      C1745   1.488   1_554  S
O1697      C1707   1.257       .  A
O1697     Al1699   1.911       .  S
O1698      C1711   1.265       .  A
O1698     Al1708   1.876       .  S
Al1699     O1712   1.952       .  S
Al1699     O1709   1.941       .  S
Al1699     O1704   1.775       .  S
O1700      C1707   1.260       .  A
O1700     Al1708   1.924       .  S
O1701      C1710   1.262       .  A
O1701     Al1708   1.925       .  S
O1702     Al1708   1.894       .  S
O1703      C1710   1.259       .  A
O1704     Al1708   1.775       .  S
O1705      C1706   1.269       .  A
C1706      C1868   1.496       .  S
C1707      C1857   1.480       .  S
C1710      C1717   1.491       .  S
C1711      O1712   1.273       .  A
C1711      C1952   1.487       .  S
C1713      C1714   1.410       .  A
C1713      C1718   1.400       .  A
C1713      H1720   1.085       .  S
C1714      C1715   1.412       .  A
C1715      C1716   1.402       .  A
C1715      N1722   1.427       .  S
C1716      C1717   1.408       .  A
C1716      H1721   1.085       .  S
C1717      C1718   1.414       .  A
C1718      N1719   1.430       .  S
N1719      O1723   1.262       .  A
N1719      O1724   1.262       .  A
N1722      O1726   1.262       .  A
N1722      O1725   1.262       .  A
C1727      C1728   1.402       .  A
C1727      C1732   1.396       .  A
C1727      H1734   1.085       .  S
C1728      C1729   1.415       .  A
C1729      C1730   1.408       .  A
C1729      N1736   1.430       .  S
C1730      C1731   1.407       .  A
C1730      H1735   1.085       .  S
C1731      C1732   1.420       .  A
C1732      N1733   1.430       .  S
N1736      O1740   1.262       .  A
N1736      O1739   1.262       .  A
C1741      C1742   1.407       .  A
C1741      C1746   1.403       .  A
C1741      H1748   1.086       .  S
C1742      C1743   1.410       .  A
C1743      C1744   1.399       .  A
C1743      N1750   1.428       .  S
C1744      C1745   1.407       .  A
C1744      H1749   1.086       .  S
C1745      C1746   1.414       .  A
C1746      N1747   1.429   1_556  S
N1747      O1751   1.262       .  A
N1747      O1752   1.262       .  A
N1750      O1754   1.262       .  A
C1755      C1756   1.410       .  A
C1755      C1760   1.405       .  A
C1755      H1762   1.084       .  S
C1756      C1757   1.417       .  A
C1757      C1758   1.408       .  A
C1757      N1764   1.429       .  S
C1758      C1759   1.408       .  A
C1758      H1763   1.084       .  S
C1759      C1760   1.415       .  A
C1760      N1761   1.429       .  S
N1761      O1765   1.262       .  A
N1761      O1766   1.262       .  A
N1764      O1768   1.262       .  A
N1764      O1767   1.262       .  A
C1769      C1770   1.411       .  A
C1769      C1774   1.399       .  A
C1769      H1776   1.086       .  S
C1770      C1771   1.418   1_556  A
C1771      C1772   1.414       .  A
C1771      N1778   1.428       .  S
C1772      C1773   1.406       .  A
C1772      H1777   1.086       .  S
C1773      C1774   1.406   1_554  A
C1774      N1775   1.429       .  S
N1775      O1779   1.262       .  A
N1775      O1780   1.261   1_556  A
N1778      O1782   1.262       .  A
N1778      O1781   1.262   1_554  A
C1783      C1784   1.401       .  A
C1783      C1788   1.398       .  A
C1783      H1790   1.100       .  S
C1784      C1785   1.412       .  A
C1785      C1786   1.382       .  A
C1785      N1792   1.426       .  S
C1786      C1787   1.385       .  A
C1786      H1791   1.120       .  S
C1787      C1788   1.409       .  A
C1788      N1789   1.428       .  S
N1789      O1793   1.261       .  A
N1789      O1794   1.261       .  A
N1792      O1796   1.260       .  A
N1792      O1795   1.262       .  A
C1797      C1798   1.415       .  A
C1797      C1802   1.395       .  A
C1797      H1804   1.086       .  S
C1798      C1799   1.410       .  A
C1799      C1800   1.406       .  A
C1799      N1806   1.427       .  S
C1800      C1801   1.406       .  A
C1800      H1805   1.087       .  S
C1801      C1802   1.401       .  A
C1802      N1803   1.429       .  S
N1803      O1807   1.262       .  A
N1803      O1808   1.262       .  A
N1806      O1810   1.262       .  A
N1806      O1809   1.262       .  A
C1811      C1812   1.415       .  A
C1811      C1816   1.396       .  A
C1811      H1818   1.085       .  S
C1812      C1813   1.412       .  A
C1814      C1815   1.408       .  A
C1814      H1819   1.085       .  S
C1816      N1817   1.430       .  S
N1817      O1821   1.262       .  A
N1817      O1822   1.262       .  A
N1820      O1824   1.262       .  A
N1820      O1823   1.262       .  A
C1825      C1826   1.405       .  A
C1825      C1830   1.416       .  A
C1825      H1832   1.085       .  S
C1826      C1827   1.409       .  A
C1827      C1828   1.398       .  A
C1828      C1829   1.408       .  A
C1828      H1833   1.085       .  S
C1829      C1830   1.420       .  A
C1830      N1831   1.427       .  S
N1831      O1835   1.262       .  A
N1831      O1836   1.262       .  A
N1834      O1838   1.260       .  A
N1834      O1837   1.262       .  A
C1839      C1840   1.407       .  A
C1839      C1844   1.400       .  A
C1839      H1846   1.086       .  S
C1840      C1841   1.416       .  A
C1841      C1842   1.404       .  A
C1841      N1848   1.429       .  S
C1842      C1843   1.408       .  A
C1842      H1847   1.085       .  S
C1843      C1844   1.414       .  A
C1844      N1845   1.428       .  S
N1845      O1850   1.262       .  A
N1848      O1852   1.262       .  A
N1848      O1851   1.262       .  A
C1853      C1854   1.410       .  A
C1853      C1858   1.406       .  A
C1853      H1860   1.086       .  S
C1854      C1855   1.408       .  A
C1855      C1856   1.400       .  A
C1855      N1862   1.428       .  S
C1856      C1857   1.404       .  A
C1856      H1861   1.086       .  S
C1857      C1858   1.407       .  A
C1858      N1859   1.427       .  S
N1859      O1863   1.262       .  A
N1859      O1864   1.262       .  A
N1862      O1866   1.262       .  A
N1862      O1865   1.261       .  A
C1867      C1868   1.414       .  A
C1867      C1872   1.396   1_565  A
C1867      H1874   1.084       .  S
C1869      C1870   1.408       .  A
C1869      N1876   1.428       .  S
C1870      C1871   1.407       .  A
C1870      H1875   1.086       .  S
C1872      N1873   1.429       .  S
N1873      O1877   1.262   1_545  A
N1876      O1880   1.262       .  A
N1876      O1879   1.262       .  A
C1881      C1882   1.399       .  A
C1881      C1886   1.395   1_554  A
C1881      H1888   1.086       .  S
C1882      C1883   1.412       .  A
C1883      C1884   1.397   1_554  A
C1883      N1890   1.428       .  S
C1884      C1885   1.398       .  A
C1884      H1889   1.086       .  S
C1885      C1886   1.408       .  A
C1886      N1887   1.428       .  S
N1887      O1891   1.262       .  A
N1887      O1892   1.261       .  A
N1890      O1894   1.261       .  A
N1890      O1893   1.262       .  A
C1895      C1896   1.406       .  A
C1895      C1900   1.413       .  A
C1895      H1902   1.085       .  S
C1896      C1897   1.405       .  A
C1897      C1898   1.394       .  A
C1897      N1904   1.428       .  S
C1898      C1899   1.409       .  A
C1898      H1903   1.085       .  S
C1899      C1900   1.419       .  A
C1900      N1901   1.428       .  S
N1901      O1905   1.262       .  A
N1901      O1906   1.261       .  A
N1904      O1908   1.261       .  A
N1904      O1907   1.262       .  A
C1909      C1910   1.410       .  A
C1909      C1914   1.405       .  A
C1909      H1916   1.082       .  S
C1910      C1911   1.416       .  A
C1911      C1912   1.398       .  A
C1911      N1918   1.428       .  S
C1912      C1913   1.402       .  A
C1912      H1917   1.083       .  S
C1913      C1914   1.412       .  A
C1914      N1915   1.429       .  S
N1915      O1919   1.262       .  A
N1915      O1920   1.262       .  A
N1918      O1922   1.262       .  A
N1918      O1921   1.262       .  A
C1923      C1924   1.410       .  A
C1923      C1928   1.409       .  A
C1923      H1930   1.086       .  S
C1924      C1925   1.399   1_655  A
C1926      C1927   1.414       .  A
C1926      H1931   1.086       .  S
C1928      N1929   1.428       .  S
N1929      O1933   1.262       .  A
N1929      O1934   1.262       .  A
N1932      O1936   1.262       .  A
N1932      O1935   1.262       .  A
C1937      C1938   1.404       .  A
C1937      C1942   1.408       .  A
C1937      H1944   1.085       .  S
C1938      C1939   1.428       .  A
C1939      C1940   1.395       .  A
C1939      N1946   1.430       .  S
C1940      C1941   1.393       .  A
C1940      H1945   1.087       .  S
C1941      C1942   1.416       .  A
C1942      N1943   1.428       .  S
N1943      O1947   1.262       .  A
N1943      O1948   1.262       .  A
N1946      O1950   1.262       .  A
N1946      O1949   1.262       .  A
C1951      C1952   1.408       .  A
C1951      C1956   1.394       .  A
C1951      H1958   1.086       .  S
C1952      C1953   1.417       .  A
C1953      C1954   1.402       .  A
C1953      N1960   1.428       .  S
C1954      C1955   1.398       .  A
C1954      H1959   1.086       .  S
C1955      C1956   1.405       .  A
C1956      N1957   1.430       .  S
N1957      O1961   1.262       .  A
N1957      O1962   1.262       .  A
N1960      O1964   1.262       .  A
N1960      O1963   1.262       .  A
C1965      C1966   1.405       .  A
C1965      C1970   1.412       .  A
C1966      C1967   1.405       .  A
C1967      C1968   1.395       .  A
C1967      N1974   1.430       .  S
C1968      C1969   1.410       .  A
C1968      H1973   1.085       .  S
C1969      C1970   1.418       .  A
C1970      N1971   1.428       .  S
N1971      O1976   1.262       .  A
N1974      O1978   1.262       .  A
N1974      O1977   1.262       .  A
C1979      C1980   1.408       .  A
C1979      C1984   1.391       .  A
C1979      H1986   1.086       .  S
C1980      C1981   1.414       .  A
C1981      C1982   1.398       .  A
C1981      N1988   1.428       .  S
C1982      C1983   1.397       .  A
C1982      H1987   1.087       .  S
C1983      C1984   1.401       .  A
C1984      N1985   1.431       .  S
N1985      O1989   1.262       .  A
N1985      O1990   1.261       .  A
N1988      O1992   1.261       .  A
N1988      O1991   1.261       .  A
C1993      C1998   1.391       .  A
C1993      H2000   1.085       .  S
C1994      C1995   1.409       .  A
C1995      C1996   1.408   1_565  A
C1995      N2002   1.427       .  S
C1996      H2001   1.083       .  S
C1997      C1998   1.404       .  A
C1998      N1999   1.428       .  S
N1999      O2003   1.260       .  A
N1999      O2004   1.262       .  A
N2002      O2006   1.262       .  A
N2002      O2005   1.262       .  A
C2007      C2008   1.402       .  A
C2007      C2012   1.407       .  A
C2007      H2014   1.083       .  S
C2008      C2009   1.421       .  A
C2009      C2010   1.397       .  A
C2009      N2016   1.430       .  S
C2010      C2011   1.394       .  A
C2010      H2015   1.080       .  S
C2011      C2012   1.415       .  A
C2012      N2013   1.429       .  S
N2013      O2017   1.262       .  A
N2013      O2018   1.261       .  A
N2016      O2020   1.262       .  A
N2016      O2019   1.263       .  A
C2021      C2022   1.403       .  A
C2021      C2026   1.401       .  A
C2021      H2028   1.086       .  S
C2022      C2023   1.418       .  A
C2023      C2024   1.403       .  A
C2023      N2030   1.428       .  S
C2024      C2025   1.403       .  A
C2024      H2029   1.086       .  S
C2025      C2026   1.418       .  A
C2026      N2027   1.428       .  S
N2027      O2031   1.262       .  A
N2027      O2032   1.262       .  A
N2030      O2034   1.261       .  A
N2030      O2033   1.262       .  A
C2035      C2036   1.405       .  A
C2035      C2040   1.405       .  A
C2035      H2042   1.084       .  S
C2036      C2037   1.410       .  A
C2037      C2038   1.405       .  A
C2037      N2044   1.430       .  S
C2038      C2039   1.409       .  A
C2038      H2043   1.084       .  S
C2039      C2040   1.416       .  A
C2040      N2041   1.429       .  S
N2041      O2045   1.262       .  A
N2041      O2046   1.262       .  A
N2044      O2048   1.262       .  A
N2044      O2047   1.262       .  A
