geometry optimzed in LAMMPS
_audit_creation_date              2020-12-01 
_audit_creation_method            'lammps2cif' 
_symmetry_space_group_name_H-M    'P1' 
_symmetry_Int_Tables_number       1 
_symmetry_cell_setting            triclinic 
loop_ 
_symmetry_equiv_pos_as_xyz 
  x,y,z 
_cell_length_a                    37.81963135 
_cell_length_b                    37.98962039013075 
_cell_length_c                    40.35277468229586 
_cell_angle_alpha                 89.85596757242156 
_cell_angle_beta                  89.12752300742714 
_cell_angle_gamma                 119.20801397978585 
loop_ 
_atom_site_label 
_atom_site_type_symbol 
_atom_site_fract_x 
_atom_site_fract_y 
_atom_site_fract_z 
_atom_site_charge 
Fe1        Fe  0.45808322  0.90237076  0.11249538     1.65800
Fe2        Fe  0.43962831  0.81044962  0.13209511     1.73200
Fe3        Fe  0.53489800  0.88588290  0.11803717     1.54400
O4          O  0.53160477  0.91003095  0.06970258    -0.82200
O5          O  0.47700836  0.80113940  0.16374005    -0.80500
O6          O  0.46669334  0.89693378  0.06323305    -0.84700
O7          O  0.51461182  0.94909560  0.10844030    -0.79500
O8          O  0.52688644  0.83725765  0.08909241    -0.81300
O9          O  0.42281326  0.83397745  0.17207458    -0.84100
C10         C  0.52825831  0.95990654  0.13615547     0.96700
C11         C  0.50169970  0.90538879  0.05109556     1.04100
O12         O  0.47723846  0.86456230  0.12050312    -1.13000
O13         O  0.39481423  0.80761002  0.10128595    -0.75500
O14         O  0.39718473  0.86461316  0.11344734    -0.79000
O15         O  0.54391449  0.93939099  0.14787139    -0.79700
C16         C  0.37802109  0.82919193  0.10343993     0.95600
O17         O  0.45453735  0.90177255  0.16373353    -0.77600
O18         O  0.46021178  0.79208892  0.09267785    -0.82800
C19         C  0.51267250  0.81862390  0.17475772     0.98200
C20         C  0.49519429  0.80591716  0.07906964     1.04100
O21         O  0.53921369  0.85322612  0.16201492    -0.78500
C22         C  0.44054859  0.87048896  0.18256629     1.02400
Fe23       Fe  0.48736045  0.60028919  0.08538483     1.65800
Fe24       Fe  0.41426149  0.61665301  0.11556430     1.73200
Fe25       Fe  0.39750625  0.52231837  0.10415136     1.54400
O26         O  0.42262203  0.51632485  0.05701362    -0.82200
O27         O  0.38960770  0.58860007  0.16196583    -0.80500
O28         O  0.46655420  0.57907898  0.03962460    -0.84700
O29         O  0.48669803  0.54730241  0.09437041    -0.79500
O30         O  0.35637704  0.52823458  0.07377862    -0.81300
O31         O  0.47079942  0.65358462  0.13507692    -0.84100
C32         C  0.47890344  0.53123506  0.12245671     0.96700
C33         C  0.44314163  0.54202315  0.03352639     1.04100
O34         O  0.43210794  0.57949875  0.10192329    -1.13000
O35         O  0.43410757  0.64597992  0.07019261    -0.75500
O36         O  0.49637382  0.65584537  0.07143733    -0.79000
O37         O  0.44256311  0.51767294  0.13386765    -0.79700
C38         C  0.47114789  0.66590290  0.06141471     0.95600
O39         O  0.50476969  0.61977751  0.13281585    -0.77600
O40         O  0.35871938  0.58319996  0.09567682    -0.82800
C41         C  0.36486275  0.55133942  0.16828608     0.98200
C42         C  0.34646089  0.55583584  0.07397090     1.04100
O43         O  0.36425011  0.52373450  0.14900308    -0.78500
C44         C  0.49290108  0.64118848  0.14863206     1.02400
Fe45       Fe  0.17897110  0.56638213  0.13605059     1.65800
Fe46       Fe  0.26083568  0.65817238  0.14363288     1.73200
Fe47       Fe  0.16674595  0.64748372  0.15779123     1.54400
O48         O  0.13379433  0.62099371  0.11386442    -0.82200
O49         O  0.26251161  0.68369593  0.19045475    -0.80500
O50         O  0.15037703  0.57451858  0.09628359    -0.84700
O51         O  0.12781209  0.54567146  0.16425233    -0.79500
O52         O  0.19934388  0.69968218  0.12947092    -0.81300
O53         O  0.26586728  0.61060499  0.16230474    -0.84100
C54         C  0.11089698  0.55925863  0.18328897     0.96700
C55         C  0.13458935  0.59707016  0.09155750     1.04100
O56         O  0.20186162  0.62448055  0.14639216    -1.13000
O57         O  0.26421740  0.63884082  0.09592875    -0.75500
O58         O  0.22476209  0.57389203  0.10497811    -0.79000
O59         O  0.12514711  0.59720188  0.18726900    -0.79700
C60         C  0.25117273  0.60247876  0.08755727     0.95600
O61         O  0.20776097  0.55879007  0.17608355    -0.77600
O62         O  0.26053840  0.70588478  0.12248112    -0.82800
C63         C  0.23999294  0.69328090  0.20812218     0.98200
C64         C  0.23542071  0.71816240  0.11828623     1.04100
O65         O  0.20234019  0.67988689  0.20057954    -0.78500
C66         C  0.24132692  0.58830893  0.18445696     1.02400
Fe67       Fe  0.45916793  0.88159010  0.39000202     1.65800
Fe68       Fe  0.39367058  0.78793882  0.36901829     1.73200
Fe69       Fe  0.36087936  0.85305477  0.38943073     1.54400
O70         O  0.39035262  0.88162752  0.43563168    -0.82200
O71         O  0.34883097  0.77653716  0.33583725    -0.80500
O72         O  0.44634998  0.87539106  0.43926736    -0.84700
O73         O  0.44538461  0.92597037  0.39079698    -0.79500
O74         O  0.32938350  0.80322808  0.42112023    -0.81300
O75         O  0.43520809  0.81702318  0.33031119    -0.84100
C76         C  0.43151193  0.93334068  0.36563288     0.96700
C77         C  0.41815661  0.87969734  0.45308522     1.04100
O78         O  0.40345089  0.83983321  0.38265255    -1.13000
O79         O  0.43409685  0.78849577  0.40240293    -0.75500
O80         O  0.48648335  0.84704993  0.39207243    -0.79000
O81         O  0.39488220  0.90764271  0.35843955    -0.79700
C82         C  0.47141783  0.81243642  0.40439531     0.95600
O83         O  0.46486682  0.88399724  0.33988798    -0.77600
O84         O  0.35320586  0.76158253  0.40671459    -0.82800
C85         C  0.32383570  0.78856895  0.32946098     0.98200
C86         C  0.33335469  0.77214419  0.42618015     1.04100
O87         O  0.32413413  0.81781073  0.34656895    -0.78500
C88         C  0.45024998  0.85385753  0.32056592     1.02400
Fe89       Fe  0.49010937  0.58567946  0.34740810     1.65800
Fe90       Fe  0.46123263  0.65370468  0.33856779     1.73200
Fe91       Fe  0.56003445  0.68065257  0.33833339     1.54400
O92         O  0.56426110  0.65416768  0.38545520    -0.82200
O93         O  0.49136101  0.69903076  0.30248074    -0.80500
O94         O  0.50342866  0.59835735  0.39609996    -0.84700
O95         O  0.54772203  0.59767860  0.34304752    -0.79500
O96         O  0.55290374  0.71960364  0.36979377    -0.81300
O97         O  0.43929845  0.61125628  0.30159387    -0.84100
C98         C  0.56361029  0.60809343  0.31520923     0.96700
C99         C  0.53712921  0.62756245  0.40594279     1.04100
O100        O  0.50374544  0.64134320  0.34204196    -1.13000
O101        O  0.42547523  0.61122101  0.37531007    -0.75500
O102        O  0.42977482  0.56072446  0.35447542    -0.79000
O103        O  0.57130849  0.64272824  0.30492392    -0.79700
C104        C  0.41166496  0.57351611  0.37255949     0.95600
O105        O  0.47994527  0.58409783  0.29737171    -0.77600
O106        O  0.48560980  0.69430927  0.37525704    -0.82800
C107        C  0.52500167  0.71767271  0.28651755     0.98200
C108        C  0.52177756  0.71740681  0.38432794     1.04100
O109        O  0.55468424  0.71188441  0.29476140    -0.78500
C110        C  0.46215278  0.60205440  0.28432565     1.02400
Fe111      Fe  0.19459913  0.59688105  0.37219616     1.65800
Fe112      Fe  0.28135763  0.60113732  0.35044124     1.73200
Fe113      Fe  0.19292345  0.51293392  0.34467118     1.54400
O114        O  0.16017986  0.50341092  0.39102367    -0.82200
O115        O  0.28391245  0.57963400  0.30274364    -0.80500
O116        O  0.18252428  0.56439637  0.41480238    -0.84700
O117        O  0.13877402  0.55536511  0.35804343    -0.79500
O118        O  0.23222318  0.50009158  0.37182685    -0.81300
O119        O  0.27345997  0.64742144  0.33046996    -0.84100
C120        C  0.12681208  0.53538177  0.33208223     0.96700
C121        C  0.16359958  0.52593701  0.41618094     1.04100
O122        O  0.22309326  0.56943843  0.35500994    -1.13000
O123        O  0.28558654  0.62190974  0.39912629    -0.75500
O124        O  0.24375630  0.64438339  0.39064223    -0.79000
O125        O  0.14759974  0.52051889  0.31855584    -0.79700
C126        C  0.26860006  0.64156531  0.40900954     0.95600
O127        O  0.20753739  0.62621977  0.32809033    -0.77600
O128        O  0.29075365  0.55812522  0.37097824    -0.82800
C129        C  0.26375464  0.54623121  0.28749259     0.98200
C130        C  0.26899588  0.52177700  0.38018577     1.04100
O131        O  0.22827415  0.51919404  0.29877310    -0.78500
C132        C  0.24227929  0.64104299  0.31413196     1.02400
Fe133      Fe  0.60327485  0.46452619  0.37764662     1.65800
Fe134      Fe  0.61144771  0.38268617  0.36661714     1.73200
Fe135      Fe  0.52003860  0.37871317  0.36341952     1.54400
O136        O  0.51623749  0.40696029  0.40986906    -0.82200
O137        O  0.58283313  0.34934336  0.32405550    -0.80500
O138        O  0.58006657  0.45223072  0.42453197    -0.84700
O139        O  0.55334318  0.46866730  0.36782846    -0.79500
O140        O  0.51167537  0.32981313  0.39289536    -0.81300
O141        O  0.65112188  0.43156801  0.33822302    -0.84100
C142        C  0.54078365  0.46181695  0.33917365     0.96700
C143        C  0.54242591  0.43016097  0.43176162     1.04100
O144        O  0.57745916  0.40680266  0.37035228    -1.13000
O145        O  0.64210945  0.41173639  0.40931838    -0.75500
O146        O  0.65766267  0.47238970  0.39233349    -0.79000
O147        O  0.52473979  0.42540171  0.32990013    -0.79700
C148        C  0.66503003  0.44963429  0.41013126     0.95600
O149        O  0.62180529  0.46834308  0.32848215    -0.77600
O150        O  0.57329627  0.33485306  0.39501431    -0.82800
C151        C  0.54885587  0.33625371  0.30950599     0.98200
C152        C  0.53563010  0.31696634  0.40186424     1.04100
O153        O  0.52256259  0.34628073  0.32001806    -0.78500
C154        C  0.63758559  0.44732306  0.31782183     1.02400
Fe155      Fe  0.89996522  0.42403387  0.39198213     1.65800
Fe156      Fe  0.81025165  0.41686654  0.37223720     1.73200
Fe157      Fe  0.89343544  0.50869019  0.37583109     1.54400
O158        O  0.92410751  0.51416472  0.42205033    -0.82200
O159        O  0.81054030  0.44287906  0.32585280    -0.80500
O160        O  0.91140845  0.45204256  0.43650993    -0.84700
O161        O  0.95390244  0.46756092  0.37244700    -0.79500
O162        O  0.84981198  0.51100248  0.40648397    -0.81300
O163        O  0.82303607  0.37458394  0.35253116    -0.84100
C164        C  0.96321336  0.49410874  0.35018520     0.96700
C165        C  0.92161210  0.48815829  0.44410810     1.04100
O166        O  0.86802987  0.45058238  0.37934256    -1.13000
O167        O  0.80405946  0.39090451  0.41844426    -0.75500
O168        O  0.85262645  0.37501811  0.41407219    -0.79000
O169        O  0.94159651  0.51122749  0.34547428    -0.79700
C170        C  0.81935292  0.36908899  0.42657916     0.95600
O171        O  0.88801695  0.39615584  0.34701008    -0.77600
O172        O  0.79368212  0.45451817  0.39398969    -0.82800
C173        C  0.82795213  0.47980435  0.31611202     0.98200
C174        C  0.81207695  0.48699302  0.40985765     1.04100
O175        O  0.85931245  0.50707075  0.33153311    -0.78500
C176        C  0.85393417  0.38538380  0.33418454     1.02400
Fe177      Fe  0.57955212  0.12820184  0.39579978     1.65800
Fe178      Fe  0.64754433  0.21345231  0.35870209     1.73200
Fe179      Fe  0.66931755  0.13993466  0.37850247     1.54400
O180        O  0.64954002  0.12113074  0.42883538    -0.82200
O181        O  0.68874715  0.21637458  0.32312223    -0.80500
O182        O  0.60249986  0.13978682  0.44216149    -0.84700
O183        O  0.58858570  0.08069963  0.39975156    -0.79500
O184        O  0.71217959  0.19197046  0.40189913    -0.81300
O185        O  0.60167421  0.18146338  0.32544240    -0.84100
C186        C  0.58606763  0.06558563  0.37283571     0.96700
C187        C  0.62748184  0.12759313  0.45022062     1.04100
O188        O  0.63366728  0.16264119  0.37823170    -1.13000
O189        O  0.61216564  0.22592960  0.39130792    -0.75500
O190        O  0.55743610  0.16742430  0.39773003    -0.79000
O191        O  0.61959407  0.08338390  0.35600126    -0.79700
C192        C  0.57544753  0.20493958  0.39991363     0.95600
O193        O  0.56411208  0.11816261  0.34660664    -0.77600
O194        O  0.69213456  0.23836744  0.39234105    -0.82800
C195        C  0.70828498  0.19852586  0.31509946     0.98200
C196        C  0.71323125  0.22568782  0.40760871     1.04100
O197        O  0.70227063  0.16653659  0.33139462    -0.78500
C198        C  0.57967488  0.14300745  0.32237170     1.02400
Fe199      Fe  0.60652225  0.44570148  0.13614592     1.65800
Fe200      Fe  0.68913851  0.43540139  0.14176544     1.73200
Fe201      Fe  0.69811707  0.52643316  0.14945139     1.54400
O202        O  0.68132192  0.53470190  0.10212593    -0.82200
O203        O  0.73480653  0.47094290  0.17627273    -0.80500
O204        O  0.61475635  0.49268486  0.10416076    -0.84700
O205        O  0.60032872  0.47318267  0.17696212    -0.79500
O206        O  0.74908874  0.52753597  0.12580733    -0.81300
O207        O  0.65540639  0.40341938  0.18080883    -0.84100
C208        C  0.61125758  0.50997117  0.17438210     0.96700
C209        C  0.64675134  0.51797167  0.08831974     1.04100
O210        O  0.66404100  0.46894666  0.14347201    -1.13000
O211        O  0.64822003  0.39408861  0.10893190    -0.75500
O212        O  0.60787676  0.41776309  0.09385283    -0.79000
O213        O  0.64896301  0.53493188  0.16853061    -0.79700
C214        C  0.62128885  0.39363375  0.09023784     0.95600
O215        O  0.59527563  0.39653750  0.16700777    -0.77600
O216        O  0.72097285  0.46784009  0.10196162    -0.82800
C217        C  0.73773979  0.49527689  0.19942605     0.98200
C218        C  0.74931480  0.50375013  0.10349567     1.04100
O219        O  0.71875873  0.51590755  0.19672549    -0.78500
C220        C  0.61902789  0.39367930  0.18786525     1.02400
Fe221      Fe  0.56693106  0.13432689  0.11551116     1.65800
Fe222      Fe  0.60129780  0.22724333  0.14699752     1.73200
Fe223      Fe  0.50110896  0.16652153  0.13461500     1.54400
O224        O  0.49073124  0.13743809  0.08769419    -0.82200
O225        O  0.57172832  0.24116503  0.18367521    -0.80500
O226        O  0.54920577  0.14108910  0.06935150    -0.84700
O227        O  0.50908420  0.09140371  0.12231749    -0.79500
O228        O  0.51830079  0.21868372  0.10614841    -0.81300
O229        O  0.61278628  0.19419838  0.18169052    -0.84100
C230        C  0.49318571  0.08440455  0.15039297     0.96700
C231        C  0.51362010  0.13587276  0.06434264     1.04100
O232        O  0.55695978  0.17723746  0.13199558    -1.13000
O233        O  0.64319260  0.22904758  0.11318426    -0.75500
O234        O  0.62690023  0.16633168  0.10295365    -0.79000
O235        O  0.48347369  0.11008202  0.16193107    -0.79700
C236        C  0.65144161  0.20331959  0.10124341     0.95600
O237        O  0.58088776  0.12950504  0.16381799    -0.77600
O238        O  0.58599451  0.25589605  0.11254801    -0.82800
C239        C  0.53630256  0.23010178  0.19439740     0.98200
C240        C  0.55316379  0.24837194  0.09832525     1.04100
O241        O  0.50572950  0.20099540  0.17988071    -0.78500
C242        C  0.59496475  0.15597782  0.18662779     1.02400
Fe243      Fe  0.90152357  0.43548737  0.13655478     1.65800
Fe244      Fe  0.80741463  0.36556395  0.15138877     1.73200
Fe245      Fe  0.88399980  0.34366253  0.14974457     1.54400
O246        O  0.91206416  0.36770674  0.10069802    -0.82200
O247        O  0.79682683  0.32480875  0.19100321    -0.80500
O248        O  0.90293359  0.42117740  0.08846866    -0.84700
O249        O  0.94991243  0.42727296  0.13949994    -0.79500
O250        O  0.83685968  0.29911246  0.12221200    -0.81300
O251        O  0.82570497  0.41304532  0.18381684    -0.84100
C252        C  0.95795784  0.42237581  0.16788217     0.96700
C253        C  0.91030660  0.39299742  0.07948313     1.04100
O254        O  0.86271197  0.37979663  0.14516890    -1.13000
O255        O  0.81023007  0.40238614  0.11149921    -0.75500
O256        O  0.86249979  0.45618169  0.12961937    -0.79000
O257        O  0.93396428  0.38767816  0.18041854    -0.79700
C258        C  0.83213617  0.44043396  0.11174859     0.95600
O259        O  0.89322822  0.43960433  0.18646296    -0.77600
O260        O  0.79030797  0.31955789  0.11938347    -0.82800
C261        C  0.81364205  0.30634255  0.20457593     0.98200
C262        C  0.80364785  0.29572951  0.11160191     1.04100
O263        O  0.84944122  0.31372302  0.19474407    -0.78500
C264        C  0.85847012  0.42811543  0.20012137     1.02400
Fe265      Fe  0.35631578  0.77461647  0.65992683     1.65800
Fe266      Fe  0.44017865  0.85879901  0.66394248     1.73200
Fe267      Fe  0.35215300  0.86151262  0.66065570     1.54400
O268        O  0.30512251  0.81932409  0.63187527    -0.82200
O269        O  0.45184249  0.91366172  0.67522184    -0.80500
O270        O  0.31865205  0.76934349  0.62348948    -0.84700
O271        O  0.31379692  0.76935164  0.69626164    -0.79500
O272        O  0.38573107  0.88694237  0.61578673    -0.81300
O273        O  0.43070643  0.84049704  0.71339501    -0.84100
C274        C  0.30134283  0.79104044  0.71136866     0.96700
C275        C  0.29803701  0.78654645  0.61818795     1.04100
O276        O  0.38169598  0.83223385  0.66211450    -1.13000
O277        O  0.44560024  0.81015822  0.65290031    -0.75500
O278        O  0.39578545  0.77817046  0.62090861    -0.79000
O279        O  0.31575061  0.82895337  0.70373506    -0.79700
C280        C  0.43350064  0.79527702  0.62537093     0.95600
O281        O  0.39434352  0.77746734  0.69725654    -0.77600
O282        O  0.43810682  0.87340582  0.61422063    -0.82800
C283        C  0.43360506  0.93001981  0.68791818     0.98200
C284        C  0.41356323  0.88299249  0.59974265     1.04100
O285        O  0.39479880  0.91227747  0.68885359    -0.78500
C286        C  0.40392773  0.80385030  0.71970666     1.02400
Fe287      Fe  0.42265814  0.66579785  0.61299744     1.65800
Fe288      Fe  0.42921204  0.58828643  0.58450871     1.73200
Fe289      Fe  0.51191104  0.66730831  0.61689176     1.54400
O290        O  0.51816689  0.72270323  0.59848580    -0.82200
O291        O  0.44791003  0.56413451  0.61875066    -0.80500
O292        O  0.45737937  0.70477998  0.57741078    -0.84700
O293        O  0.45777893  0.70435343  0.65137184    -0.79500
O294        O  0.52858318  0.65926626  0.56820796    -0.81300
O295        O  0.37785887  0.56989996  0.61596511    -0.84100
C296        C  0.48062582  0.70191661  0.67310388     0.96700
C297        C  0.49476002  0.72982571  0.58009983     1.04100
O298        O  0.45507338  0.63979301  0.60605086    -1.13000
O299        O  0.40965085  0.60924771  0.54672671    -0.75500
O300        O  0.37871585  0.63227615  0.57834638    -0.79000
O301        O  0.49952479  0.68198997  0.66646113    -0.79700
C302        C  0.37943526  0.61316702  0.55293052     0.95600
O303        O  0.38986324  0.62327043  0.64711993    -0.77600
O304        O  0.47738960  0.60048840  0.55264068    -0.82800
C305        C  0.48178615  0.57382391  0.63080090     0.98200
C306        C  0.51170674  0.63126792  0.54687733     1.04100
O307        O  0.50966476  0.61121977  0.63315042    -0.78500
C308        C  0.37385438  0.58538026  0.64296811     1.02400
Fe309      Fe  0.21785495  0.57770633  0.64017787     1.65800
Fe310      Fe  0.12458417  0.55240651  0.61311615     1.73200
Fe311      Fe  0.15204731  0.48192179  0.61882970     1.54400
O312        O  0.20343694  0.50036917  0.58795514    -0.82200
O313        O  0.07916458  0.49463149  0.61522703    -0.80500
O314        O  0.24424233  0.56587471  0.60075017    -0.84700
O315        O  0.22839820  0.54023621  0.67109218    -0.79500
O316        O  0.12309836  0.48024271  0.57363441    -0.81300
O317        O  0.12133320  0.55995612  0.66348208    -0.84100
C318        C  0.21385688  0.50299647  0.67709322     0.96700
C319        C  0.23389814  0.53540638  0.58211734     1.04100
O320        O  0.16616512  0.53805237  0.62378450    -1.13000
O321        O  0.15917882  0.61319971  0.60709137    -0.75500
O322        O  0.22189204  0.62563165  0.61273353    -0.79000
O323        O  0.18361682  0.47683530  0.66084247    -0.79700
C324        C  0.19654741  0.63682741  0.60553148     0.95600
O325        O  0.18683845  0.58599656  0.67915710    -0.77600
O326        O  0.13151038  0.54228163  0.56422907    -0.82800
C327        C  0.07241111  0.47493569  0.64145985     0.98200
C328        C  0.12664032  0.50845273  0.55381640     1.04100
O329        O  0.09856222  0.46458033  0.64999491    -0.78500
C330        C  0.14883176  0.57124173  0.68540358     1.02400
Fe331      Fe  0.42416842  0.76632878  0.86807916     1.65800
Fe332      Fe  0.40952401  0.84430317  0.87867650     1.73200
Fe333      Fe  0.49636094  0.85823577  0.84371819     1.54400
O334        O  0.51864297  0.81916959  0.85907138    -0.82200
O335        O  0.41318754  0.87067350  0.83425497    -0.80500
O336        O  0.47292610  0.78472333  0.89746803    -0.84700
O337        O  0.45580957  0.76519909  0.82360486    -0.79500
O338        O  0.51102923  0.88467096  0.89069803    -0.81300
O339        O  0.35675122  0.79344203  0.86234941    -0.84100
C340        C  0.47095068  0.78690076  0.79709209     0.96700
C341        C  0.50463940  0.79175257  0.88167728     1.04100
O342        O  0.44204053  0.82257742  0.86106733    -1.13000
O343        O  0.40687706  0.82038051  0.92443669    -0.75500
O344        O  0.38630383  0.75821809  0.90984093    -0.79000
O345        O  0.48253953  0.82525505  0.79780722    -0.79700
C346        C  0.38291953  0.78352294  0.92837891     0.95600
O347        O  0.37629901  0.75195677  0.83954593    -0.77600
O348        O  0.45936688  0.89582998  0.89581186    -0.82800
C349        C  0.44489118  0.90317430  0.82751121     0.98200
C350        C  0.49061757  0.89689289  0.90790268     1.04100
O351        O  0.47950176  0.90383001  0.82807138    -0.78500
C352        C  0.35395379  0.76828554  0.84008765     1.02400
Fe353      Fe  0.37116005  0.57584293  0.83198348     1.65800
Fe354      Fe  0.44943252  0.56169052  0.81871044     1.73200
Fe355      Fe  0.35852872  0.48254424  0.83955250     1.54400
O356        O  0.31201834  0.48785491  0.86322145    -0.82200
O357        O  0.43681345  0.51122614  0.79430696    -0.80500
O358        O  0.34339342  0.55188236  0.87603982    -0.84700
O359        O  0.32289627  0.53378917  0.80295590    -0.79500
O360        O  0.38923268  0.49449106  0.88317906    -0.81300
O361        O  0.43724307  0.57703898  0.77231819    -0.84100
C362        C  0.31189652  0.50040635  0.78760674     0.96700
C363        C  0.31481571  0.51661362  0.88073861     1.04100
O364        O  0.39347272  0.54040149  0.83058867    -1.13000
O365        O  0.47058890  0.61853405  0.83714146    -0.75500
O366        O  0.41745398  0.61985949  0.85951715    -0.79000
O367        O  0.32762082  0.47747573  0.79422770    -0.79700
C368        C  0.45531285  0.63591743  0.85387664     0.95600
O369        O  0.40124544  0.60448901  0.78955536    -0.77600
O370        O  0.45350807  0.54153566  0.86813262    -0.82800
C371        C  0.43357078  0.48260528  0.81105875     0.98200
C372        C  0.42634562  0.51869835  0.89031977     1.04100
O373        O  0.39962399  0.46148065  0.82537171    -0.78500
C374        C  0.40956252  0.58641529  0.76739082     1.02400
Fe375      Fe  0.22637750  0.64761534  0.86459762     1.65800
Fe376      Fe  0.14100989  0.56716616  0.88717247     1.73200
Fe377      Fe  0.14802768  0.65915549  0.88927926     1.54400
O378        O  0.20376740  0.70299321  0.90989695    -0.82200
O379        O  0.09969241  0.56617694  0.85695320    -0.80500
O380        O  0.24393997  0.67457393  0.90860373    -0.84700
O381        O  0.23054696  0.70038464  0.84540386    -0.79500
O382        O  0.13243114  0.63666962  0.93707597    -0.81300
O383        O  0.16558040  0.55912939  0.84314481    -0.84100
C384        C  0.20417336  0.70467840  0.82976314     0.96700
C385        C  0.23341475  0.69895951  0.92101759     1.04100
O386        O  0.17165352  0.62480469  0.88148262    -1.13000
O387        O  0.18297013  0.56489448  0.91639135    -0.75500
O388        O  0.23388503  0.59950300  0.88131463    -0.79000
O389        O  0.16709369  0.68695532  0.84057337    -0.79700
C390        C  0.21691003  0.57316356  0.90423337     0.95600
O391        O  0.20275191  0.62016634  0.82096747    -0.77600
O392        O  0.11366555  0.57155445  0.93175963    -0.82800
C393        C  0.07461276  0.57665808  0.86568468     0.98200
C394        C  0.11882392  0.60147206  0.94955488     1.04100
O395        O  0.08687184  0.61303498  0.87559541    -0.78500
C396        C  0.17515909  0.58372193  0.81872685     1.02400
Fe397      Fe  0.57734275  0.36359640  0.63811694     1.65800
Fe398      Fe  0.56364150  0.44314778  0.64172680     1.73200
Fe399      Fe  0.48502165  0.34908227  0.62930314     1.54400
O400        O  0.49651450  0.30608897  0.60464350    -0.82200
O401        O  0.51609256  0.42849627  0.67183195    -0.80500
O402        O  0.56078993  0.34488269  0.59148224    -0.84700
O403        O  0.53141397  0.30994075  0.66042835    -0.79500
O404        O  0.49287386  0.37676904  0.58404062    -0.81300
O405        O  0.59005526  0.44189083  0.68688838    -0.84100
C406        C  0.50414945  0.30449485  0.68210496     0.96700
C407        C  0.52754842  0.31367831  0.58649610     1.04100
O408        O  0.54275407  0.38634267  0.63615174    -1.13000
O409        O  0.61645065  0.46416581  0.61490732    -0.75500
O410        O  0.62773033  0.41235211  0.61781806    -0.79000
O411        O  0.48143395  0.32057048  0.67669390    -0.79700
C412        C  0.63843993  0.44835200  0.60950498     0.95600
O413        O  0.59334421  0.38468652  0.68392533    -0.77600
O414        O  0.53608735  0.44210895  0.59492979    -0.82800
C415        C  0.48472583  0.42336198  0.65873321     0.98200
C416        C  0.51384248  0.41352019  0.57464056     1.04100
O417        O  0.46331151  0.38934962  0.64529743    -0.78500
C418        C  0.59415870  0.41343946  0.70021460     1.02400
Fe419      Fe  0.78439218  0.42559202  0.64144882     1.65800
Fe420      Fe  0.87162465  0.42616185  0.64873747     1.73200
Fe421      Fe  0.87078013  0.51357286  0.64713726     1.54400
O422        O  0.82234417  0.51908852  0.62710325    -0.82200
O423        O  0.90234023  0.46276392  0.68531689    -0.80500
O424        O  0.79267033  0.46155865  0.60156855    -0.84700
O425        O  0.77967730  0.46488845  0.67714484    -0.79500
O426        O  0.89251902  0.51300364  0.59972090    -0.81300
O427        O  0.83559015  0.39239178  0.68884961    -0.84100
C428        C  0.80269352  0.49033167  0.69889003     0.96700
C429        C  0.79605189  0.49559576  0.60683485     1.04100
O430        O  0.84185626  0.45426101  0.64555605    -1.13000
O431        O  0.84133821  0.38350371  0.61512875    -0.75500
O432        O  0.78296810  0.38261056  0.60818990    -0.79000
O433        O  0.84196536  0.50909742  0.69469113    -0.79700
C434        C  0.80706467  0.36879031  0.60232485     0.95600
O435        O  0.77568113  0.38780369  0.68020677    -0.77600
O436        O  0.90671082  0.46241425  0.60675604    -0.82800
C437        C  0.93360370  0.49237080  0.67553847     0.98200
C438        C  0.90623599  0.49030460  0.58852815     1.04100
O439        O  0.92899112  0.52038500  0.66261961    -0.78500
C440        C  0.80301672  0.39119302  0.69962354     1.02400
Fe441      Fe  0.65065189  0.24200438  0.64671553     1.65800
Fe442      Fe  0.57197944  0.15535999  0.62256170     1.73200
Fe443      Fe  0.65539476  0.15420476  0.65217641     1.54400
O444        O  0.70702021  0.19877582  0.62615517    -0.82200
O445        O  0.55101734  0.11514155  0.65942343    -0.80500
O446        O  0.69172954  0.24710626  0.61214329    -0.84700
O447        O  0.68887020  0.24623354  0.68546778    -0.79500
O448        O  0.64185699  0.12533468  0.60738328    -0.81300
O449        O  0.55765616  0.19260586  0.65026406    -0.84100
C450        C  0.69455982  0.22294391  0.70474317     0.96700
C451        C  0.71219158  0.22895991  0.60813125     1.04100
O452        O  0.62608918  0.18320660  0.64126394    -1.13000
O453        O  0.58943719  0.19286544  0.58246327    -0.75500
O454        O  0.61671382  0.24962437  0.61007944    -0.79000
O455        O  0.68001568  0.18526161  0.69800149    -0.79700
C456        C  0.59625614  0.22837949  0.58604700     0.95600
O457        O  0.60733262  0.23477788  0.68106528    -0.77600
O458        O  0.58168992  0.11686595  0.59327993    -0.82800
C459        C  0.56230743  0.09261800  0.67283802     0.98200
C460        C  0.61285972  0.11352203  0.58743657     1.04100
O461        O  0.60060654  0.10307428  0.67424575    -0.78500
C462        C  0.57260107  0.20405140  0.67868858     1.02400
Fe463      Fe  0.67465166  0.42801128  0.87572274     1.65800
Fe464      Fe  0.59068467  0.42688627  0.90175799     1.73200
Fe465      Fe  0.67137537  0.51467125  0.87808210     1.54400
O466        O  0.72167159  0.51819699  0.90436249    -0.82200
O467        O  0.56830809  0.45376595  0.87282337    -0.80500
O468        O  0.70484902  0.45374589  0.91598416    -0.84700
O469        O  0.72095256  0.47284334  0.84604680    -0.79500
O470        O  0.65325047  0.52370225  0.92520239    -0.81300
O471        O  0.57983135  0.38714318  0.86139760    -0.84100
C472        C  0.71803741  0.49524920  0.82414502     0.96700
C473        C  0.72304409  0.49107360  0.92286485     1.04100
O474        O  0.64487999  0.45718613  0.88425541    -1.13000
O475        O  0.60838431  0.39926133  0.93526912    -0.75500
O476        O  0.63469797  0.37455908  0.90120489    -0.79000
O477        O  0.69458004  0.51025081  0.82988742    -0.79700
C478        C  0.61084078  0.36973835  0.92513972     0.95600
O479        O  0.64056471  0.40529392  0.83669633    -0.77600
O480        O  0.59944135  0.46564899  0.94074839    -0.82800
C481        C  0.58084754  0.48726115  0.85841993     0.98200
C482        C  0.62662221  0.50151510  0.94687595     1.04100
O483        O  0.61893375  0.51343019  0.85584588    -0.78500
C484        C  0.60232198  0.38996374  0.83602276     1.02400
Fe485      Fe  0.56246968  0.20167669  0.84507978     1.65800
Fe486      Fe  0.53113632  0.10717712  0.86835619     1.73200
Fe487      Fe  0.46347926  0.13894452  0.86020713     1.54400
O488        O  0.47928417  0.18896307  0.89077143    -0.82200
O489        O  0.47274838  0.06227283  0.86554279    -0.80500
O490        O  0.54366913  0.23154212  0.87526596    -0.84700
O491        O  0.53305289  0.21019590  0.80629028    -0.79500
O492        O  0.45837226  0.10869195  0.90657955    -0.81300
O493        O  0.53916153  0.10526442  0.81875236    -0.84100
C494        C  0.49723600  0.20192998  0.79925991     0.96700
C495        C  0.51289775  0.22153213  0.89386833     1.04100
O496        O  0.51879182  0.15031798  0.85816980    -1.13000
O497        O  0.59307146  0.14319949  0.87421372    -0.75500
O498        O  0.59650862  0.20140004  0.88408447    -0.79000
O499        O  0.46682831  0.17474138  0.81630120    -0.79700
C500        C  0.61176035  0.17852838  0.88533978     0.95600
O501        O  0.58221147  0.17133010  0.81437816    -0.77600
O502        O  0.51896339  0.11243796  0.91643448    -0.82800
C503        C  0.45253351  0.05684573  0.83996795     0.98200
C504        C  0.48540466  0.10951345  0.92642990     1.04100
O505        O  0.44600737  0.08540671  0.83020015    -0.78500
C506        C  0.55869855  0.13728607  0.80157532     1.02400
Fe507      Fe  0.77091044  0.35467610  0.88453376     1.65800
Fe508      Fe  0.86316566  0.43387230  0.88726431     1.73200
Fe509      Fe  0.85321687  0.34291992  0.87565505     1.54400
O510        O  0.80103520  0.29111364  0.89285552    -0.82200
O511        O  0.89141009  0.43169503  0.84577874    -0.80500
O512        O  0.76932504  0.31712110  0.92144688    -0.84700
O513        O  0.76457973  0.31313518  0.84676971    -0.79500
O514        O  0.87423498  0.35556386  0.92346511    -0.81300
O515        O  0.82969738  0.44711540  0.85341624    -0.84100
C516        C  0.78759191  0.31113856  0.82381773     0.96700
C517        C  0.77162483  0.28668289  0.91159536     1.04100
O518        O  0.82867426  0.37728817  0.88307563    -1.13000
O519        O  0.83546939  0.43951745  0.92833273    -0.75500
O520        O  0.77085669  0.39657199  0.91925081    -0.79000
O521        O  0.82646317  0.32782183  0.82771377    -0.79700
C522        C  0.79861264  0.42820076  0.93291037     0.95600
O523        O  0.77202676  0.38987842  0.84669590    -0.77600
O524        O  0.89844586  0.42240664  0.92207406    -0.82800
C525        C  0.92082302  0.42711078  0.85183363     0.98200
C526        C  0.89310078  0.39012201  0.93708446     1.04100
O527        O  0.91270550  0.39172927  0.86091734    -0.78500
C528        C  0.79969705  0.42347899  0.83579803     1.02400
C529        C  0.66276335  0.21455346  0.92795360    -0.20800
C530        C  0.65325972  0.19503656  0.89734087    -0.07400
C531        C  0.68461127  0.19735309  0.87641317     0.13500
C532        C  0.72497239  0.22273475  0.88511184    -0.20900
C533        C  0.73440996  0.24693946  0.91347324    -0.07400
C534        C  0.70313735  0.23970323  0.93663003     0.13500
C535        C  0.71151940  0.25929208  0.97003632    -0.24200
H536        H  0.63858135  0.21173584  0.94445805     0.14800
H537        H  0.74879787  0.22753223  0.86740882     0.14800
C538        C  0.67582248  0.17678190  0.84324833    -0.24200
H539        H  0.69776807  0.23538116  0.98941845     0.05000
H540        H  0.69803814  0.27946711  0.97188078     0.08200
H541        H  0.74440444  0.27688824  0.97502708     0.08200
H542        H  0.65936882  0.18788612  0.82757014     0.08200
H543        H  0.65716082  0.14365656  0.84681474     0.08200
H544        H  0.70403191  0.18288371  0.82963410     0.05000
C545        C  0.75357390  0.44287001  0.96985904    -0.20800
C546        C  0.78898025  0.45693163  0.95025686    -0.07400
C547        C  0.81031175  0.49877665  0.94118083     0.13500
C548        C  0.79001044  0.52127721  0.94400702    -0.20900
C549        C  0.74890605  0.50087824  0.95219227    -0.07400
C550        C  0.73567932  0.46754950  0.97427620     0.13500
C551        C  0.69413874  0.44971358  0.99043813    -0.24200
H552        H  0.73762545  0.41170978  0.97818855     0.14800
H553        H  0.80266428  0.55052741  0.93186936     0.14800
C554        C  0.85171989  0.51870124  0.92466485    -0.24200
H555        H  0.67501532  0.41787092  0.98289060     0.05000
H556        H  0.69632096  0.45084343  0.01772565     0.08200
H557        H  0.67844980  0.46667012  0.98317321     0.08200
H558        H  0.85054179  0.50469577  0.90032741     0.08200
H559        H  0.87369075  0.51591028  0.94089089     0.08200
H560        H  0.86318133  0.55136507  0.92003616     0.05000
C561        C  0.53890597  0.32011101  0.92405463    -0.20800
C562        C  0.57800621  0.32927758  0.93389954    -0.07400
C563        C  0.58521685  0.29797231  0.94406522     0.13500
C564        C  0.55482799  0.25807695  0.93937395    -0.20900
C565        C  0.52027360  0.24978203  0.92091338    -0.07400
C566        C  0.51012803  0.28040187  0.91646035     0.13500
C567        C  0.47151146  0.27191132  0.89972788    -0.24200
H568        H  0.53292356  0.34440398  0.91757020     0.14800
H569        H  0.56196179  0.23406953  0.94387124     0.14800
C570        C  0.62538493  0.30578345  0.95734459    -0.24200
H571        H  0.46831874  0.29940576  0.89791190     0.05000
H572        H  0.44520572  0.24870565  0.91421307     0.08200
H573        H  0.47102883  0.26071615  0.87425492     0.08200
H574        H  0.62062141  0.29086087  0.98196315     0.08200
H575        H  0.64669328  0.33843340  0.96040742     0.08200
H576        H  0.63953177  0.29322828  0.94016706     0.05000
C577        C  0.59004861  0.16589490  0.71647937    -0.20800
C578        C  0.56057787  0.17527535  0.70614116    -0.07400
C579        C  0.52357732  0.15955175  0.72356206     0.13500
C580        C  0.52067792  0.14112094  0.75446407    -0.20900
C581        C  0.55324031  0.13660490  0.76624788    -0.07400
C582        C  0.58647916  0.14551712  0.74579381     0.13500
C583        C  0.61982972  0.13698696  0.75598314    -0.24200
H584        H  0.61630691  0.17525027  0.70122638     0.14800
H585        H  0.49454652  0.13319827  0.77045865     0.14800
C586        C  0.48878607  0.16403128  0.71057289    -0.24200
H587        H  0.62489245  0.11929044  0.73651136     0.05000
H588        H  0.61229588  0.11912143  0.77935368     0.08200
H589        H  0.64826787  0.16567696  0.75966021     0.08200
H590        H  0.47821653  0.14817980  0.68684995     0.08200
H591        H  0.49833192  0.19590129  0.70516406     0.08200
H592        H  0.46278006  0.15182323  0.72843022     0.05000
C593        C  0.75620118  0.24632126  0.74250296    -0.20800
C594        C  0.71738386  0.24176611  0.73662066    -0.07400
C595        C  0.70308790  0.26073134  0.75938118     0.13500
C596        C  0.72700575  0.28295169  0.78639303    -0.20900
C597        C  0.76590954  0.28797961  0.79250447    -0.07400
C598        C  0.78046760  0.26910525  0.76976037     0.13500
C599        C  0.82145877  0.27261624  0.77410107    -0.24200
H600        H  0.76820147  0.23294313  0.72512027     0.14800
H601        H  0.71486236  0.29696274  0.80298728     0.14800
C602        C  0.66191825  0.25743185  0.75582160    -0.24200
H603        H  0.82802691  0.25563624  0.75486412     0.05000
H604        H  0.82279373  0.26030740  0.79875015     0.08200
H605        H  0.84526560  0.30475454  0.77210117     0.08200
H606        H  0.63819909  0.22552451  0.75803210     0.08200
H607        H  0.65965266  0.26994660  0.73162673     0.08200
H608        H  0.65558328  0.27416815  0.77543527     0.05000
C609        C  0.72045081  0.48794037  0.76155932    -0.20800
C610        C  0.74160106  0.50148728  0.79130304    -0.07400
C611        C  0.78399488  0.51491659  0.78959494     0.13500
C612        C  0.80327679  0.51331874  0.75923609    -0.20900
C613        C  0.78164266  0.49686741  0.72985291    -0.07400
C614        C  0.73922906  0.48501240  0.73147748     0.13500
C615        C  0.71255538  0.46885181  0.70171798    -0.24200
H616        H  0.68813639  0.47735955  0.76226089     0.14800
H617        H  0.83546960  0.52372766  0.75889568     0.14800
C618        C  0.80931594  0.53130052  0.81999789    -0.24200
H619        H  0.68172792  0.46452072  0.70666990     0.05000
H620        H  0.70895147  0.43905740  0.69480630     0.08200
H621        H  0.72574661  0.49039723  0.68066338     0.08200
H622        H  0.79919646  0.50751648  0.83947996     0.08200
H623        H  0.80638167  0.55713478  0.82961077     0.08200
H624        H  0.84188269  0.54203470  0.81453276     0.05000
C625        C  0.83551497  0.42998797  0.74941221    -0.20800
C626        C  0.79981961  0.40126505  0.73464510    -0.07400
C627        C  0.76246340  0.39016113  0.75113455     0.13500
C628        C  0.76261256  0.40425001  0.78335067    -0.20900
C629        C  0.79909267  0.42988032  0.79946262    -0.07400
C630        C  0.83539067  0.44634124  0.78033763     0.13500
C631        C  0.87490614  0.48103487  0.79089012    -0.24200
H632        H  0.86406707  0.44128751  0.73625550     0.14800
H633        H  0.73416390  0.39257467  0.79707689     0.14800
C634        C  0.72245968  0.36222631  0.73575046    -0.24200
H635        H  0.88575799  0.50540492  0.77184220     0.05000
H636        H  0.89755068  0.47061378  0.79202709     0.08200
H637        H  0.87295301  0.49464266  0.81452722     0.08200
H638        H  0.72273299  0.33484721  0.72666139     0.08200
H639        H  0.71668566  0.37764525  0.71484798     0.08200
H640        H  0.69701079  0.35269551  0.75383390     0.05000
C641        C  0.73923266  0.27168580  0.55943941    -0.20800
C642        C  0.74531567  0.24775558  0.58304140    -0.07400
C643        C  0.78454861  0.26326174  0.59516168     0.13500
C644        C  0.80879601  0.30517702  0.59611234    -0.20900
C645        C  0.79360748  0.33036827  0.58466100    -0.07400
C646        C  0.76062689  0.31384058  0.56294570     0.13500
C647        C  0.74651784  0.33960726  0.54545352    -0.24200
H648        H  0.71104166  0.25834075  0.54606293     0.14800
H649        H  0.83648275  0.31745548  0.61009343     0.14800
C650        C  0.79812802  0.23683829  0.61219733    -0.24200
H651        H  0.73498175  0.35379267  0.56339721     0.05000
H652        H  0.72131964  0.32120126  0.52871646     0.08200
H653        H  0.77196080  0.36335118  0.53060327     0.08200
H654        H  0.77579328  0.20440461  0.60936725     0.08200
H655        H  0.80225447  0.24402044  0.63899684     0.08200
H656        H  0.82736876  0.24218279  0.60102777     0.05000
C657        C  0.46435078  0.25736975  0.73264659    -0.20800
C658        C  0.50036361  0.27825316  0.71294207    -0.07400
C659        C  0.53365612  0.27295461  0.72289746     0.13500
C660        C  0.53062686  0.24944116  0.75101505    -0.20900
C661        C  0.49462063  0.22679625  0.76978882    -0.07400
C662        C  0.46093143  0.23151334  0.76028248     0.13500
C663        C  0.42156040  0.20993045  0.77939514    -0.24200
H664        H  0.43836623  0.26049679  0.72604122     0.14800
H665        H  0.55713665  0.24702400  0.75713496     0.14800
C666        C  0.57310491  0.29013342  0.70352360    -0.24200
H667        H  0.39842827  0.21681830  0.76929698     0.05000
H668        H  0.42641163  0.21934257  0.80571130     0.08200
H669        H  0.40958188  0.17686152  0.77802310     0.08200
H670        H  0.58667152  0.32286280  0.70103078     0.08200
H671        H  0.56793651  0.27630464  0.67866317     0.08200
H672        H  0.59603859  0.28465449  0.71583081     0.05000
C673        C  0.56842423  0.40469649  0.79223364    -0.20800
C674        C  0.58622960  0.38188295  0.80274472    -0.07400
C675        C  0.60495317  0.36871268  0.77926724     0.13500
C676        C  0.61238967  0.38502799  0.74735408    -0.20900
C677        C  0.59581911  0.40908549  0.73649030    -0.07400
C678        C  0.57199674  0.41754655  0.75912532     0.13500
C679        C  0.54926965  0.43883916  0.74874740    -0.24200
H680        H  0.55398445  0.41477604  0.81039513     0.14800
H681        H  0.63017696  0.37762760  0.73035570     0.14800
C682        C  0.61800890  0.33821293  0.78831961    -0.24200
H683        H  0.53204625  0.44224711  0.76978792     0.05000
H684        H  0.52678751  0.42051472  0.73005687     0.08200
H685        H  0.57054393  0.46930262  0.73864487     0.08200
H686        H  0.59187544  0.31106978  0.79949191     0.08200
H687        H  0.64314463  0.35069607  0.80613649     0.08200
H688        H  0.62832940  0.32831614  0.76613309     0.05000
C689        C  0.56696154  0.29857414  0.54631196    -0.20800
C690        C  0.52965527  0.28404691  0.56379519    -0.07400
C691        C  0.50859886  0.24285526  0.57262776     0.13500
C692        C  0.53045398  0.22193270  0.57421975    -0.20900
C693        C  0.57235869  0.24202680  0.56734796    -0.07400
C694        C  0.59046545  0.27980188  0.55129072     0.13500
C695        C  0.63513942  0.30182773  0.54277071    -0.24200
H696        H  0.58184976  0.32917699  0.53652327     0.14800
H697        H  0.51605595  0.19197636  0.58530057     0.14800
C698        C  0.46522603  0.22217638  0.58465053    -0.24200
H699        H  0.65303133  0.30893114  0.56573453     0.05000
H700        H  0.64418791  0.33063730  0.52935393     0.08200
H701        H  0.64287022  0.28269041  0.52682765     0.08200
H702        H  0.45041678  0.24060160  0.57959048     0.08200
H703        H  0.46376400  0.21590851  0.61168349     0.08200
H704        H  0.44791184  0.19324270  0.57143199     0.05000
C705        C  0.70553002  0.50861572  0.61320922    -0.20800
C706        C  0.67969877  0.47337954  0.59611556    -0.07400
C707        C  0.69616838  0.45823412  0.57224335     0.13500
C708        C  0.73821910  0.47450954  0.57028810    -0.20900
C709        C  0.76318496  0.50224037  0.59410377    -0.07400
C710        C  0.74756837  0.52322994  0.61275718     0.13500
C711        C  0.77396532  0.55835122  0.63437096    -0.24200
H712        H  0.69261996  0.52135495  0.63039491     0.14800
H713        H  0.75068788  0.46048603  0.55398074     0.14800
C714        C  0.66956637  0.42325337  0.55050968    -0.24200
H715        H  0.75684722  0.57261028  0.64506893     0.05000
H716        H  0.79968522  0.58156950  0.61937482     0.08200
H717        H  0.78563484  0.54843695  0.65538958     0.08200
H718        H  0.65075822  0.39569262  0.56557175     0.08200
H719        H  0.68792671  0.41596454  0.53306541     0.08200
H720        H  0.64955470  0.43089425  0.53588486     0.05000
C721        C  0.02763543  0.50535754  0.87985842    -0.20800
C722        C  0.03215341  0.54199677  0.86656969    -0.07400
C723        C  0.99990421  0.54014880  0.84842029     0.13500
C724        C  0.96496633  0.50236318  0.84387655    -0.20900
C725        C  0.96123683  0.46522899  0.85542826    -0.07400
C726        C  0.99349659  0.46740652  0.87412924     0.13500
C727        C  0.99264981  0.43023205  0.88820812    -0.24200
H728        H  0.05239420  0.50627275  0.89375128     0.14800
H729        H  0.94025686  0.50246082  0.83115671     0.14800
C730        C  0.00156298  0.57691284  0.83272980    -0.24200
H731        H  0.02087733  0.43759555  0.90153198     0.05000
H732        H  0.98946517  0.40930462  0.86788450     0.08200
H733        H  0.96710272  0.41494410  0.90617124     0.08200
H734        H  0.99849584  0.57292395  0.80547698     0.08200
H735        H  0.03024171  0.60487708  0.83757098     0.08200
H736        H  0.97617698  0.58085125  0.84265034     0.05000
C737        C  0.47431020  0.47213398  0.85389595    -0.20800
C738        C  0.47148523  0.48190921  0.82095357    -0.07400
C739        C  0.50734330  0.49804332  0.80062260     0.13500
C740        C  0.54415534  0.50277621  0.81355953    -0.20900
C741        C  0.54674045  0.49342437  0.84673757    -0.07400
C742        C  0.51133368  0.47963258  0.86735127     0.13500
C743        C  0.51152320  0.47306204  0.90427779    -0.24200
H744        H  0.44785494  0.46090080  0.87013714     0.14800
H745        H  0.57053060  0.51248827  0.79743902     0.14800
C746        C  0.50681273  0.50896186  0.76482756    -0.24200
H747        H  0.49871381  0.49000046  0.91752773     0.05000
H748        H  0.54239278  0.48408066  0.91388111     0.08200
H749        H  0.49264247  0.44048777  0.91039913     0.08200
H750        H  0.50138516  0.53505666  0.76285862     0.08200
H751        H  0.48278952  0.48274890  0.75168656     0.08200
H752        H  0.53619825  0.51757114  0.75213694     0.05000
C753        C  0.21803067  0.50966978  0.89851461    -0.20800
C754        C  0.23442233  0.54777170  0.91313003    -0.07400
C755        C  0.27105723  0.56323132  0.93013961     0.13500
C756        C  0.29396758  0.54360340  0.92695662    -0.20900
C757        C  0.28255218  0.51209161  0.90411987    -0.07400
C758        C  0.24181828  0.49098264  0.89426526     0.13500
C759        C  0.22439096  0.45075820  0.87733905    -0.24200
H760        H  0.18848670  0.49670648  0.88728002     0.14800
H761        H  0.32426585  0.55778122  0.93689934     0.14800
C762        C  0.28701269  0.60149759  0.94963415    -0.24200
H763        H  0.23950396  0.45321491  0.85307445     0.05000
H764        H  0.19155124  0.43822668  0.87275756     0.08200
H765        H  0.22806815  0.42905385  0.89342123     0.08200
H766        H  0.26499159  0.59713819  0.96984160     0.08200
H767        H  0.29134544  0.62690070  0.93327867     0.08200
H768        H  0.31652322  0.60961080  0.96106780     0.05000
C769        C  0.41041951  0.98275800  0.84327531    -0.20800
C770        C  0.43805253  0.01608976  0.82432629    -0.07400
C771        C  0.46321800  0.00929599  0.80166714     0.13500
C772        C  0.46546700  0.97300554  0.80278828    -0.20900
C773        C  0.44019704  0.94079711  0.82399450    -0.07400
C774        C  0.41016502  0.94536357  0.84279804     0.13500
C775        C  0.37896418  0.91212039  0.86461024    -0.24200
H776        H  0.39087626  0.98706035  0.86080196     0.14800
H777        H  0.48683647  0.96983192  0.78676623     0.14800
C778        C  0.48669138  0.03936032  0.77500224    -0.24200
H779        H  0.35935305  0.92159126  0.87830555     0.05000
H780        H  0.39443575  0.90329077  0.88321517     0.17800
H781        H  0.35869263  0.88588605  0.84936897     0.08200
H782        H  0.51948498  0.04932459  0.77677437     0.08200
H783        H  0.48114449  0.06527664  0.77615726     0.08200
H784        H  0.47596306  0.02522461  0.75069554     0.05000
C785        C  0.27915450  0.76712763  0.93991388    -0.20800
C786        C  0.26070059  0.72583526  0.94645877    -0.07400
C787        C  0.28253905  0.71122289  0.96459459     0.13500
C788        C  0.32501167  0.73249655  0.96240725    -0.20900
C789        C  0.34462355  0.77078803  0.94733653    -0.07400
C790        C  0.32145886  0.79051093  0.94137580     0.13500
C791        C  0.34063832  0.83474134  0.93311333    -0.24200
H792        H  0.26182444  0.77965304  0.92863509     0.14800
H793        H  0.34237962  0.71817698  0.96995783     0.14800
C794        C  0.26052270  0.67111617  0.98228632    -0.24200
H795        H  0.31766664  0.84483807  0.93131839     0.05000
H796        H  0.35675659  0.84119710  0.90895533     0.08200
H797        H  0.36188300  0.85237766  0.95293678     0.08200
H798        H  0.24080021  0.64676797  0.96528806     0.08200
H799        H  0.24130191  0.67293688  0.00254897     0.08200
H800        H  0.28203145  0.66274123  0.99321392     0.05000
C801        C  0.47972181  0.68789524  0.89764576    -0.20800
C802        C  0.48232610  0.67746770  0.86482151    -0.07400
C803        C  0.50779561  0.70797771  0.84181770     0.13500
C804        C  0.52458057  0.74856284  0.85089828    -0.20900
C805        C  0.51501643  0.75887562  0.88182455    -0.07400
C806        C  0.49739794  0.72848136  0.90674701     0.13500
C807        C  0.49337882  0.73818501  0.94232920    -0.24200
H808        H  0.46223809  0.66444469  0.91582340     0.14800
H809        H  0.53964430  0.77178400  0.83203526     0.14800
C810        C  0.51412389  0.69823997  0.80672402    -0.24200
H811        H  0.50713275  0.72478832  0.95870352     0.05000
H812        H  0.46087112  0.72543951  0.94934319     0.08200
H813        H  0.50921087  0.77120822  0.94659434     0.08200
H814        H  0.48454793  0.68091906  0.79441549     0.08200
H815        H  0.52992520  0.68013854  0.80690536     0.08200
H816        H  0.53287886  0.72591573  0.79165238     0.05000
C817        C  0.03792342  0.49801495  0.68272562    -0.20800
C818        C  0.03491423  0.46818899  0.66022991    -0.07400
C819        C  0.99687549  0.44446214  0.64561451     0.13500
C820        C  0.96474089  0.45249441  0.65217414    -0.20900
C821        C  0.97000410  0.48650024  0.67032471    -0.07400
C822        C  0.00689110  0.50855460  0.68685712     0.13500
C823        C  0.01342243  0.54293050  0.70898442    -0.24200
H824        H  0.06537679  0.51473438  0.69605341     0.14800
H825        H  0.93547014  0.43233118  0.64210729     0.14800
C826        C  0.99057621  0.41131673  0.62196743    -0.24200
H827        H  0.04392129  0.55727232  0.72013207     0.05000
H828        H  0.99036587  0.53176416  0.72937735     0.08200
H829        H  0.01064793  0.56623705  0.69436446     0.08200
H830        H  0.99738843  0.38934690  0.63454130     0.08200
H831        H  0.01083738  0.42411715  0.59986375     0.08200
H832        H  0.95889475  0.39484794  0.61322230     0.05000
C833        C  0.13312692  0.59313085  0.73799630    -0.20800
C834        C  0.13690210  0.56389237  0.72034799    -0.07400
C835        C  0.13897642  0.53250731  0.73764150     0.13500
C836        C  0.14962116  0.53773511  0.77100582    -0.20900
C837        C  0.15316314  0.57139520  0.78751381    -0.07400
C838        C  0.13842461  0.59529882  0.77214227     0.13500
C839        C  0.12571309  0.62121681  0.79109032    -0.24200
H840        H  0.12767165  0.61507298  0.72512367     0.14800
H841        H  0.15634305  0.51656982  0.78367355     0.14800
C842        C  0.12951168  0.49376235  0.72101013    -0.24200
H843        H  0.09244494  0.60851954  0.78905318     0.05000
H844        H  0.14046502  0.65230052  0.78084060     0.08200
H845        H  0.13267451  0.62188384  0.81745904     0.08200
H846        H  0.14786150  0.50036903  0.69816704     0.08200
H847        H  0.09703819  0.47749465  0.71460355     0.08200
H848        H  0.13529410  0.47352782  0.73724167     0.05000
C849        C  0.22758661  0.50388389  0.73775948    -0.20800
C850        C  0.23220144  0.49187677  0.70588494    -0.07400
C851        C  0.25963291  0.47661636  0.70208328     0.13500
C852        C  0.28316515  0.47622947  0.72946997    -0.20900
C853        C  0.27982915  0.49041036  0.76116163    -0.07400
C854        C  0.24923048  0.50185325  0.76526462     0.13500
C855        C  0.23835806  0.51285840  0.79834516    -0.24200
H856        H  0.20756412  0.51637855  0.74124293     0.14800
H857        H  0.30590014  0.46709745  0.72551222     0.14800
C858        C  0.26547934  0.46270108  0.66863390    -0.24200
H859        H  0.20541495  0.49341231  0.80341820     0.05000
H860        H  0.24537406  0.54485423  0.79780409     0.08200
H861        H  0.25409628  0.50835427  0.81936453     0.08200
H862        H  0.27721033  0.48815903  0.65053462     0.08200
H863        H  0.23605655  0.43810529  0.65997219     0.08200
H864        H  0.28708545  0.45088477  0.66950328     0.05000
C865        C  0.46133997  0.50179217  0.62071044    -0.20800
C866        C  0.48566570  0.53704629  0.63924563    -0.07400
C867        C  0.50772940  0.53350089  0.66555150     0.13500
C868        C  0.50484635  0.49547951  0.67245500    -0.20900
C869        C  0.47981324  0.46016510  0.65409115    -0.07400
C870        C  0.45721083  0.46381431  0.62817538     0.13500
C871        C  0.42883470  0.42820408  0.60776888    -0.24200
H872        H  0.44449072  0.50367886  0.59993337     0.14800
H873        H  0.52296596  0.49354508  0.69216214     0.14800
C874        C  0.53387319  0.56941210  0.68635094    -0.24200
H875        H  0.41262743  0.43648773  0.58925812     0.05000
H876        H  0.40565879  0.40439749  0.62421477     0.08200
H877        H  0.44588039  0.41601529  0.59393385     0.08200
H878        H  0.51489085  0.58060864  0.69871483     0.08200
H879        H  0.55731593  0.59372246  0.67043993     0.08200
H880        H  0.54968601  0.56187196  0.70569230     0.05000
C881        C  0.50651782  0.78464753  0.74136051    -0.20800
C882        C  0.47485715  0.76518681  0.76541115    -0.07400
C883        C  0.44785605  0.72329328  0.75958584     0.13500
C884        C  0.45146446  0.70357654  0.73050235    -0.20900
C885        C  0.48298658  0.72279636  0.70670073    -0.07400
C886        C  0.51126079  0.76399399  0.71307208     0.13500
C887        C  0.54724071  0.78599819  0.69010316    -0.24200
H888        H  0.52850043  0.81603190  0.74508271     0.14800
H889        H  0.42903453  0.67244073  0.72624208     0.14800
C890        C  0.41429923  0.69852886  0.78402075    -0.24200
H891        H  0.56612287  0.81804954  0.69717569     0.05000
H892        H  0.53705056  0.78487588  0.66433483     0.08200
H893        H  0.56631224  0.77121502  0.69090710     0.08200
H894        H  0.39467833  0.71228427  0.78807151     0.08200
H895        H  0.42692351  0.69556794  0.80782944     0.08200
H896        H  0.39533294  0.66776419  0.77516600     0.05000
C897        C  0.33997655  0.57675432  0.69585670    -0.20800
C898        C  0.35486934  0.56000518  0.67246953    -0.07400
C899        C  0.37299068  0.53793793  0.68440753     0.13500
C900        C  0.39053643  0.54712281  0.71564302    -0.20900
C901        C  0.38527717  0.57376629  0.73666709    -0.07400
C902        C  0.35449032  0.58378727  0.72823569     0.13500
C903        C  0.33526132  0.60163232  0.75081261    -0.24200
H904        H  0.32172826  0.58984202  0.68751310     0.14800
H905        H  0.40849116  0.53347583  0.72333205     0.14800
C906        C  0.37491099  0.50558309  0.66451897    -0.24200
H907        H  0.30185082  0.58272906  0.74995091     0.05000
H908        H  0.34282353  0.63208471  0.74153088     0.08200
H909        H  0.34255487  0.60304235  0.77718705     0.08200
H910        H  0.36073855  0.50177045  0.63996962     0.08200
H911        H  0.35852779  0.47647649  0.67824291     0.08200
H912        H  0.40667538  0.51246144  0.66135880     0.05000
C913        C  0.31633770  0.60394666  0.52989775    -0.20800
C914        C  0.34129266  0.58731804  0.53635448    -0.07400
C915        C  0.32338788  0.54495274  0.54097561     0.13500
C916        C  0.28216349  0.52309440  0.54985318    -0.20900
C917        C  0.25977442  0.54324795  0.55247807    -0.07400
C918        C  0.27487544  0.58138726  0.53675819     0.13500
C919        C  0.24922780  0.60128520  0.53258655    -0.24200
H920        H  0.32967791  0.63590347  0.52431080     0.14800
H921        H  0.26964151  0.49268926  0.55970633     0.14800
C922        C  0.34820627  0.52372746  0.54059032    -0.24200
H923        H  0.25058726  0.61062099  0.50628484     0.05000
H924        H  0.26099582  0.62831593  0.54844887     0.08200
H925        H  0.21702397  0.58061481  0.53947468     0.08200
H926        H  0.37016756  0.53421079  0.56095793     0.08200
H927        H  0.36478570  0.52962267  0.51649075     0.08200
H928        H  0.32875575  0.49058101  0.54359796     0.05000
C929        C  0.53391605  0.02403839  0.70132362    -0.20800
C930        C  0.52704001  0.05275624  0.68518134    -0.07400
C931        C  0.48533019  0.04099983  0.67772067     0.13500
C932        C  0.45373164  0.00190671  0.68521749    -0.20900
C933        C  0.46147339  0.97249178  0.69788370    -0.07400
C934        C  0.50197959  0.98444452  0.70778419     0.13500
C935        C  0.51297423  0.95509694  0.72344446    -0.24200
H936        H  0.56460359  0.03178841  0.70763264     0.14800
H937        H  0.42322729  0.99277098  0.67722321     0.14800
C938        C  0.47248775  0.06745162  0.65931965    -0.24200
H939        H  0.53064206  0.96834266  0.74613745     0.05000
H940        H  0.53194251  0.94874728  0.70581871     0.08200
H941        H  0.48585506  0.92631512  0.73077871     0.08200
H942        H  0.48617234  0.07447544  0.63396894     0.08200
H943        H  0.48153684  0.09513390  0.67350273     0.08200
H944        H  0.43916334  0.05310878  0.65635047     0.05000
C945        C  0.26498988  0.79113428  0.76614656    -0.20800
C946        C  0.26955736  0.76969332  0.73928323    -0.07400
C947        C  0.24539185  0.72663193  0.74097296     0.13500
C948        C  0.22147746  0.70719845  0.76952222    -0.20900
C949        C  0.21897194  0.72819757  0.79720413    -0.07400
C950        C  0.24125066  0.77105079  0.79517401     0.13500
C951        C  0.24187852  0.79564577  0.82451371    -0.24200
H952        H  0.28258363  0.82375222  0.76567846     0.14800
H953        H  0.20728113  0.67471267  0.77124123     0.14800
C954        C  0.24480107  0.69974306  0.71321703    -0.24200
H955        H  0.26058477  0.82850267  0.81937957     0.05000
H956        H  0.25480873  0.78804282  0.84613722     0.08200
H957        H  0.21054062  0.78902671  0.83082638     0.08200
H958        H  0.27390619  0.69930441  0.71190096     0.08200
H959        H  0.23904737  0.71039831  0.68931904     0.08200
H960        H  0.22052125  0.66800019  0.71701252     0.05000
C961        C  0.35514381  0.75029188  0.75785749    -0.20800
C962        C  0.37868047  0.79185627  0.75047864    -0.07400
C963        C  0.37099665  0.81913953  0.76911852     0.13500
C964        C  0.34492179  0.80462014  0.79690668    -0.20900
C965        C  0.33296491  0.76597504  0.80928816    -0.07400
C966        C  0.33061909  0.73694874  0.78650629     0.13500
C967        C  0.30718491  0.69264448  0.79501758    -0.24200
H968        H  0.35674030  0.72821329  0.74187240     0.14800
H969        H  0.34083463  0.82564337  0.81242869     0.14800
C970        C  0.38931402  0.86303858  0.76005200    -0.24200
H971        H  0.30947348  0.67400859  0.77481348     0.05000
H972        H  0.27478785  0.68357170  0.79885888     0.08200
H973        H  0.31855691  0.68589120  0.81800656     0.08200
H974        H  0.37821481  0.87909318  0.77653688     0.08200
H975        H  0.38086977  0.86575562  0.73459722     0.08200
H976        H  0.42275494  0.87804362  0.76174502     0.05000
C977        C  0.24089738  0.69865225  0.57283251    -0.20800
C978        C  0.21117962  0.67963676  0.59770624    -0.07400
C979        C  0.20091809  0.70327071  0.61863706     0.13500
C980        C  0.22576192  0.74533976  0.61814111    -0.20900
C981        C  0.26153599  0.76291696  0.59891053    -0.07400
C982        C  0.26540280  0.74061366  0.57255548     0.13500
C983        C  0.29992026  0.75997554  0.54778250    -0.24200
H984        H  0.24719850  0.68078994  0.55535282     0.14800
H985        H  0.22177965  0.76296914  0.63745643     0.14800
C986        C  0.16686911  0.68415916  0.64398252    -0.24200
H987        H  0.28771574  0.75436200  0.52239443     0.05000
H988        H  0.32045640  0.74699474  0.55041537     0.08200
H989        H  0.31772149  0.79313431  0.55119855     0.08200
H990        H  0.17222527  0.66439686  0.66112492     0.08200
H991        H  0.13774127  0.66592420  0.63124617     0.08200
H992        H  0.16410457  0.70715453  0.65905224     0.05000
C993        C  0.45071579  0.78204758  0.56852715    -0.20800
C994        C  0.46350219  0.79825960  0.60004169    -0.07400
C995        C  0.50558294  0.81482242  0.60708740     0.13500
C996        C  0.52815308  0.80107093  0.58859078    -0.20900
C997        C  0.50761378  0.77042001  0.56587617    -0.07400
C998        C  0.47608448  0.77268846  0.54924740     0.13500
C999        C  0.46203287  0.75327533  0.51638957    -0.24200
H1000       H  0.42076325  0.77434440  0.56003218     0.14800
H1001       H  0.55784178  0.80746549  0.59677156     0.14800
C1002       C  0.52679348  0.84637437  0.63310053    -0.24200
H1003       H  0.45832449  0.77446065  0.49980569     0.05000
H1004       H  0.43252855  0.72506652  0.51915119     0.08200
H1005       H  0.48482713  0.74628784  0.50522911     0.08200
H1006       H  0.51602821  0.83404446  0.65838659     0.08200
H1007       H  0.52152886  0.87228586  0.62861351     0.08200
H1008       H  0.56003876  0.85794658  0.63216581     0.05000
C1009       C  0.89276900  0.35530490  0.99032446    -0.20800
C1010       C  0.90715916  0.39185799  0.97229063    -0.07400
C1011       C  0.93090257  0.42832255  0.98956114     0.13500
C1012       C  0.93488867  0.42718627  0.02426864    -0.20900
C1013       C  0.91631980  0.39079193  0.04271566    -0.07400
C1014       C  0.89707031  0.35431760  0.02498023     0.13500
C1015       C  0.87828530  0.31416998  0.04255738    -0.24200
H1016       H  0.87567520  0.32695296  0.97764258     0.14800
H1017       H  0.95083672  0.45536064  0.03746259     0.14800
C1018       C  0.95165444  0.46879189  0.97213142    -0.24200
H1019       H  0.86452649  0.28863960  0.02503582     0.05000
H1020       H  0.85402974  0.31181071  0.05947491     0.08200
H1021       H  0.90162028  0.31121693  0.05676555     0.08200
H1022       H  0.92888980  0.47649660  0.96259789     0.08200
H1023       H  0.97107974  0.46826947  0.95143722     0.08200
H1024       H  0.97142989  0.49330580  0.98909321     0.05000
C1025       C  0.49311198  0.08965177  0.01660619    -0.20800
C1026       C  0.49765787  0.12541556  0.03042936    -0.07400
C1027       C  0.49035162  0.15190404  0.01070847     0.13500
C1028       C  0.48088067  0.14307668  0.97710255    -0.20900
C1029       C  0.47940001  0.10881852  0.96269033    -0.07400
C1030       C  0.48391298  0.08095601  0.98303683     0.13500
C1031       C  0.48000341  0.04220364  0.96984357    -0.24200
H1032       H  0.49807203  0.06895786  0.03185065     0.14800
H1033       H  0.47833284  0.16487647  0.96136670     0.14800
C1034       C  0.49602075  0.19111775  0.02426122    -0.24200
H1035       H  0.45614096  0.01657246  0.98440621     0.05000
H1036       H  0.50915957  0.04214088  0.97242646     0.08200
H1037       H  0.47127033  0.03738408  0.94343706     0.08200
H1038       H  0.52772525  0.20948863  0.03239727     0.08200
H1039       H  0.47492654  0.18520533  0.04559524     0.08200
H1040       H  0.49016738  0.20886962  0.00535429     0.05000
C1041       C  0.71464361  0.20009773  0.10274434    -0.20800
C1042       C  0.69267540  0.21702478  0.08836477    -0.07400
C1043       C  0.71323732  0.25210084  0.06843810     0.13500
C1044       C  0.75562229  0.27211779  0.06729834    -0.20900
C1045       C  0.77654344  0.26197178  0.09060854    -0.07400
C1046       C  0.75693242  0.22295363  0.10476935     0.13500
C1047       C  0.77953117  0.20795979  0.12575990    -0.24200
H1048       H  0.69867862  0.17215082  0.11682564     0.14800
H1049       H  0.77154246  0.30125229  0.05485149     0.14800
C1050       C  0.69111904  0.27100676  0.05166287    -0.24200
H1051       H  0.75944909  0.17659867  0.13474196     0.05000
H1052       H  0.79214016  0.22732444  0.14776960     0.08200
H1053       H  0.80463099  0.20833384  0.11086058     0.08200
H1054       H  0.67774118  0.28248595  0.07046545     0.08200
H1055       H  0.66658464  0.24840790  0.03619227     0.08200
H1056       H  0.71179784  0.29700402  0.03561154     0.05000
C1057       C  0.67005106  0.53566507  0.99486537    -0.20800
C1058       C  0.63086338  0.51593515  0.98192705    -0.07400
C1059       C  0.59759403  0.50484985  0.00408653     0.13500
C1060       C  0.60423814  0.50996092  0.03855128    -0.20900
C1061       C  0.64323624  0.52496542  0.05191681    -0.07400
C1062       C  0.67677886  0.53969560  0.02924676     0.13500
C1063       C  0.71981910  0.55691015  0.04052672    -0.24200
H1064       H  0.69572802  0.54461609  0.97805102     0.14800
H1065       H  0.57831216  0.49981864  0.05526279     0.14800
C1066       C  0.55501111  0.48761923  0.99165245    -0.24200
H1067       H  0.74186724  0.56730925  0.01939070     0.05000
H1068       H  0.72326104  0.53333475  0.05391263     0.08200
H1069       H  0.72782891  0.58323320  0.05670961     0.08200
H1070       H  0.54504345  0.45786796  0.98011091     0.08200
H1071       H  0.55370784  0.50869898  0.97323871     0.08200
H1072       H  0.53312841  0.48316669  0.01206578     0.05000
C1073       C  0.77914260  0.48297053  0.05972492    -0.20800
C1074       C  0.78506044  0.51399253  0.08179512    -0.07400
C1075       C  0.82218896  0.53255484  0.09775720     0.13500
C1076       C  0.83996181  0.50878298  0.10514829    -0.20900
C1077       C  0.82178275  0.46826583  0.09431943    -0.07400
C1078       C  0.79331874  0.45638870  0.06873710     0.13500
C1079       C  0.77630026  0.41579353  0.05254497    -0.24200
H1080       H  0.75448288  0.47259708  0.04274832     0.14800
H1081       H  0.86557324  0.52087968  0.12155310     0.14800
C1082       C  0.84024510  0.57507752  0.10989187    -0.24200
H1083       H  0.75514784  0.41251790  0.03266060     0.05000
H1084       H  0.75873573  0.39136184  0.07086952     0.08200
H1085       H  0.80125783  0.41188962  0.04158722     0.08200
H1086       H  0.84236066  0.57580734  0.13724439     0.08200
H1087       H  0.82168835  0.58906548  0.10246901     0.08200
H1088       H  0.87111238  0.59330756  0.09891264     0.05000
C1089       C  0.55730413  0.34015167  0.07018003    -0.20800
C1090       C  0.59989453  0.35984703  0.06761262    -0.07400
C1091       C  0.61875618  0.33815548  0.05581906     0.13500
C1092       C  0.59614980  0.29617370  0.05602672    -0.20900
C1093       C  0.55790327  0.27728332  0.07206251    -0.07400
C1094       C  0.53583265  0.29812981  0.07388470     0.13500
C1095       C  0.49173820  0.27729113  0.08398019    -0.24200
H1096       H  0.54209146  0.35722180  0.07639808     0.14800
H1097       H  0.61174247  0.27906983  0.05135575     0.14800
C1098       C  0.66341708  0.35810164  0.04777331    -0.24200
H1099       H  0.47920090  0.29831437  0.08316711     0.05000
H1100       H  0.48760419  0.26520865  0.10964654     0.08200
H1101       H  0.47424469  0.25222775  0.06670867     0.08200
H1102       H  0.67855572  0.34782000  0.06567620     0.08200
H1103       H  0.67785239  0.39139833  0.04900787     0.08200
H1104       H  0.66826864  0.35002959  0.02234752     0.05000
C1105       C  0.58925357  0.08774157  0.49908974    -0.20800
C1106       C  0.62673510  0.11571156  0.48492430    -0.07400
C1107       C  0.66151709  0.13305186  0.50454985     0.13500
C1108       C  0.65705558  0.12571935  0.53882833    -0.20900
C1109       C  0.61845573  0.10224331  0.55363425    -0.07400
C1110       C  0.58487404  0.08004613  0.53321203     0.13500
C1111       C  0.54391295  0.04938996  0.54689085    -0.24200
H1112       H  0.56289653  0.07285787  0.48361420     0.14800
H1113       H  0.68311236  0.14242320  0.55432607     0.14800
C1114       C  0.70249537  0.16212185  0.48996606    -0.24200
H1115       H  0.53394797  0.02007560  0.53443505     0.05000
H1116       H  0.52147798  0.05961644  0.54220237     0.08200
H1117       H  0.54449874  0.04411018  0.57388640     0.08200
H1118       H  0.70134961  0.18813522  0.47858830     0.08200
H1119       H  0.71132802  0.14681467  0.47080545     0.08200
H1120       H  0.72627776  0.17388743  0.50907388     0.05000
C1121       C  0.54458613  0.13173849  0.27127911    -0.20800
C1122       C  0.57300046  0.12733271  0.28881080    -0.07400
C1123       C  0.60287931  0.12186810  0.27145628     0.13500
C1124       C  0.60956339  0.13062643  0.23764901    -0.20900
C1125       C  0.58497457  0.14189654  0.22094293    -0.07400
C1126       C  0.55007727  0.13891801  0.23748235     0.13500
C1127       C  0.51899285  0.14548758  0.22129180    -0.24200
H1128       H  0.52064801  0.13422905  0.28444690     0.14800
H1129       H  0.63418353  0.12942821  0.22451088     0.14800
C1130       C  0.62737314  0.10654080  0.28815018    -0.24200
H1131       H  0.51389214  0.16770627  0.23533237     0.05000
H1132       H  0.48989574  0.11672442  0.22150229     0.08200
H1133       H  0.52952151  0.15706347  0.19612819     0.08200
H1134       H  0.64077242  0.12545534  0.30959393     0.08200
H1135       H  0.65193484  0.10770108  0.27192686     0.08200
H1136       H  0.60728630  0.07479570  0.29580894     0.05000
C1137       C  0.80512239  0.26969260  0.26164275    -0.20800
C1138       C  0.78835611  0.27403144  0.23169309    -0.07400
C1139       C  0.74569029  0.24761097  0.22843104     0.13500
C1140       C  0.72174662  0.22077795  0.25465225    -0.20900
C1141       C  0.73784239  0.21780750  0.28517945    -0.07400
C1142       C  0.78062547  0.24292902  0.28819574     0.13500
C1143       C  0.80025068  0.24337304  0.32041640    -0.24200
H1144       H  0.83727819  0.28901196  0.26519772     0.14800
H1145       H  0.68925287  0.20304309  0.25179640     0.14800
C1146       C  0.72442302  0.24707702  0.19695469    -0.24200
H1147       H  0.83342275  0.26437801  0.31937030     0.05000
H1148       H  0.79515840  0.21264633  0.32622626     0.08200
H1149       H  0.78691754  0.25321125  0.34064437     0.08200
H1150       H  0.73994823  0.24218849  0.17535512     0.08200
H1151       H  0.72399573  0.27586043  0.19375269     0.08200
H1152       H  0.69245822  0.22245435  0.19728532     0.05000
C1153       C  0.93557655  0.47102029  0.50082602    -0.20800
C1154       C  0.92852819  0.49749127  0.48080688    -0.07400
C1155       C  0.92138856  0.52637323  0.49732924     0.13500
C1156       C  0.91716641  0.52496721  0.53243203    -0.20900
C1157       C  0.91977598  0.49543416  0.55220923    -0.07400
C1158       C  0.93118914  0.46934128  0.53573681     0.13500
C1159       C  0.93769140  0.43845021  0.55418952    -0.24200
H1160       H  0.94254356  0.44957159  0.48885548     0.14800
H1161       H  0.90978227  0.54615738  0.54430685     0.14800
C1162       C  0.91646077  0.55775514  0.47826250    -0.24200
H1163       H  0.94828007  0.42216376  0.53747818     0.05000
H1164       H  0.90886215  0.41545824  0.56600026     0.08200
H1165       H  0.96118697  0.45362097  0.57317943     0.08200
H1166       H  0.88969224  0.54297240  0.46217337     0.08200
H1167       H  0.94410242  0.57625977  0.46288232     0.08200
H1168       H  0.91188845  0.57841636  0.49499513     0.05000
C1169       C  0.81875150  0.39312811  0.24932923    -0.20800
C1170       C  0.85464543  0.42529413  0.23602390    -0.07400
C1171       C  0.88835347  0.44651883  0.25626230     0.13500
C1172       C  0.88721679  0.43152655  0.28779029    -0.20900
C1173       C  0.85293414  0.39692038  0.30000115    -0.07400
C1174       C  0.81743107  0.37848102  0.28117913     0.13500
C1175       C  0.77850449  0.34312143  0.29393602    -0.24200
H1176       H  0.79223164  0.37753545  0.23412741     0.14800
H1177       H  0.91292278  0.44808047  0.30338435     0.14800
C1178       C  0.92536048  0.48533186  0.24585417    -0.24200
H1179       H  0.75534009  0.33028738  0.27437545     0.05000
H1180       H  0.76542954  0.35281839  0.31442789     0.08200
H1181       H  0.78434050  0.31887348  0.30294910     0.08200
H1182       H  0.92084186  0.49805350  0.22260462     0.08200
H1183       H  0.95177895  0.48027375  0.24291938     0.08200
H1184       H  0.93214415  0.50842022  0.26519154     0.05000
C1185       C  0.75050163  0.49600665  0.26273842    -0.20800
C1186       C  0.76433846  0.49801204  0.22961927    -0.07400
C1187       C  0.80228257  0.49826046  0.22593834     0.13500
C1188       C  0.82355711  0.49516797  0.25401364    -0.20900
C1189       C  0.80839260  0.49050702  0.28681951    -0.07400
C1190       C  0.77151214  0.49203086  0.29074021     0.13500
C1191       C  0.75413176  0.48957834  0.32499101    -0.24200
H1192       H  0.72205179  0.49585106  0.26681902     0.14800
H1193       H  0.85200378  0.49545538  0.25008691     0.14800
C1194       C  0.82133406  0.50251859  0.19210440    -0.24200
H1195       H  0.72655521  0.49284772  0.32448782     0.05000
H1196       H  0.77680775  0.51421814  0.34035170     0.08200
H1197       H  0.74606863  0.46009574  0.33674094     0.08200
H1198       H  0.82431734  0.52985816  0.17966812     0.08200
H1199       H  0.80255444  0.47563676  0.17696831     0.08200
H1200       H  0.85203362  0.50560278  0.19343677     0.05000
C1201       C  0.72644753  0.27798152  0.44791282    -0.20800
C1202       C  0.73965244  0.25291476  0.43303172    -0.07400
C1203       C  0.78051738  0.26294357  0.43552788     0.13500
C1204       C  0.80829228  0.30256975  0.44410996    -0.20900
C1205       C  0.79527791  0.33160209  0.44607277    -0.07400
C1206       C  0.75410431  0.31821639  0.45386796     0.13500
C1207       C  0.73769097  0.34666715  0.45990330    -0.24200
H1208       H  0.69434048  0.26849585  0.44893201     0.14800
H1209       H  0.84035619  0.31220673  0.44207330     0.14800
C1210       C  0.79536050  0.23415070  0.42561977    -0.24200
H1211       H  0.70964717  0.33197815  0.47546791     0.05000
H1212       H  0.72972930  0.35525658  0.43597409     0.08200
H1213       H  0.76024753  0.37406506  0.47278172     0.08200
H1214       H  0.78987041  0.22681966  0.39895291     0.08200
H1215       H  0.77927623  0.20604618  0.44071173     0.08200
H1216       H  0.82836811  0.24722679  0.42968773     0.05000
C1217       C  0.49518547  0.39762102  0.48075468    -0.20800
C1218       C  0.52985022  0.43097849  0.46744393    -0.07400
C1219       C  0.55401146  0.46275764  0.48958001     0.13500
C1220       C  0.54617654  0.45755222  0.52414671    -0.20900
C1221       C  0.51428295  0.42195422  0.53783469    -0.07400
C1222       C  0.48674863  0.39283411  0.51525886     0.13500
C1223       C  0.44828188  0.35609181  0.52684500    -0.24200
H1224       H  0.47551003  0.37390139  0.46422602     0.14800
H1225       H  0.56661224  0.48079960  0.54066778     0.14800
C1226       C  0.58834761  0.50260363  0.47737113    -0.24200
H1227       H  0.42830641  0.34011284  0.50581504     0.05000
H1228       H  0.43097570  0.36520692  0.54394726     0.08200
H1229       H  0.45526884  0.33417432  0.53923978     0.08200
H1230       H  0.57769385  0.51488672  0.45722494     0.08200
H1231       H  0.61423945  0.49897819  0.46841546     0.08200
H1232       H  0.59986591  0.52531676  0.49738792     0.05000
C1233       C  0.51112863  0.27310935  0.22675990    -0.20800
C1234       C  0.53358122  0.25213551  0.22584359    -0.07400
C1235       C  0.55937551  0.25877166  0.25348316     0.13500
C1236       C  0.56185301  0.28472446  0.27971351    -0.20900
C1237       C  0.54073870  0.30676635  0.28035138    -0.07400
C1238       C  0.51439210  0.29998602  0.25322410     0.13500
C1239       C  0.49058598  0.32206153  0.25136796    -0.24200
H1240       H  0.49210951  0.26986358  0.20590906     0.14800
H1241       H  0.58169426  0.28825592  0.30005203     0.14800
C1242       C  0.58565797  0.23927108  0.25688853    -0.24200
H1243       H  0.47290080  0.31503325  0.22827313     0.05000
H1244       H  0.51138768  0.35508520  0.25186627     0.08200
H1245       H  0.46902567  0.31316565  0.27274187     0.08200
H1246       H  0.57657683  0.22037061  0.27976394     0.08200
H1247       H  0.61788711  0.26277106  0.25885692     0.08200
H1248       H  0.58379690  0.21999160  0.23597619     0.05000
C1249       C  0.64564031  0.40516352  0.27494228    -0.20800
C1250       C  0.63255702  0.43306976  0.28318809    -0.07400
C1251       C  0.60702292  0.43839740  0.26107081     0.13500
C1252       C  0.59172925  0.41300620  0.23389072    -0.20900
C1253       C  0.60904148  0.38972922  0.22345004    -0.07400
C1254       C  0.63400244  0.38335083  0.24556321     0.13500
C1255       C  0.65040080  0.35525078  0.23775610    -0.24200
H1256       H  0.66473018  0.39975565  0.29161959     0.14800
H1257       H  0.57164921  0.41701068  0.21753347     0.14800
C1258       C  0.59829523  0.47271463  0.26311125    -0.24200
H1259       H  0.64368985  0.33399942  0.25880724     0.05000
H1260       H  0.68377534  0.37286213  0.23402820     0.08200
H1261       H  0.63654979  0.33728935  0.21524987     0.08200
H1262       H  0.61897585  0.49710127  0.27942124     0.08200
H1263       H  0.56614457  0.46060479  0.27045282     0.08200
H1264       H  0.60398304  0.48774261  0.23865581     0.05000
C1265       C  0.54522161  0.27531998  0.44186630    -0.20800
C1266       C  0.52031712  0.27692862  0.41704737    -0.07400
C1267       C  0.50247103  0.24448423  0.39481829     0.13500
C1268       C  0.51918057  0.21891731  0.39133058    -0.20900
C1269       C  0.55206113  0.22458061  0.41055256    -0.07400
C1270       C  0.56316874  0.25077494  0.43777816     0.13500
C1271       C  0.59514109  0.25431611  0.46133121    -0.24200
H1272       H  0.55723449  0.29897343  0.46020473     0.14800
H1273       H  0.50896044  0.19702544  0.37155949     0.14800
C1274       C  0.47077665  0.24052880  0.37072797    -0.24200
H1275       H  0.59991929  0.27647722  0.48091842     0.05000
H1276       H  0.62441901  0.26469435  0.44789543     0.08200
H1277       H  0.58568611  0.22461136  0.47330890     0.08200
H1278       H  0.48384721  0.24703459  0.34515422     0.08200
H1279       H  0.45874988  0.26124000  0.37659356     0.08200
H1280       H  0.44489302  0.20930636  0.37189761     0.05000
C1281       C  0.73239551  0.50882359  0.41933875    -0.20800
C1282       C  0.70403016  0.46841749  0.42770044    -0.07400
C1283       C  0.71689406  0.44626648  0.44752647     0.13500
C1284       C  0.75865320  0.46150894  0.45129291    -0.20900
C1285       C  0.78635372  0.49528061  0.43243104    -0.07400
C1286       C  0.77396498  0.52243196  0.42133759     0.13500
C1287       C  0.80424285  0.56332370  0.40778663    -0.24200
H1288       H  0.72269116  0.52802240  0.40713684     0.14800
H1289       H  0.76907492  0.44224985  0.46234192     0.14800
C1290       C  0.68769316  0.40552267  0.46210482    -0.24200
H1291       H  0.78931067  0.58082715  0.39987957     0.05000
H1292       H  0.82081375  0.56026851  0.38604143     0.08200
H1293       H  0.82627228  0.58058298  0.42728834     0.08200
H1294       H  0.67541642  0.38256077  0.44237164     0.08200
H1295       H  0.66248846  0.40702570  0.47527767     0.08200
H1296       H  0.70279351  0.39544616  0.48020118     0.05000
C1297       C  0.11538492  0.51765883  0.46143604    -0.20800
C1298       C  0.14447232  0.50819688  0.44870373    -0.07400
C1299       C  0.16157353  0.49141202  0.47010954     0.13500
C1300       C  0.15291572  0.48899875  0.50437113    -0.20900
C1301       C  0.12691472  0.50237629  0.51750945    -0.07400
C1302       C  0.10576433  0.51416220  0.49550425     0.13500
C1303       C  0.07299571  0.52287732  0.50778503    -0.24200
H1304       H  0.10173553  0.52992534  0.44484050     0.14800
H1305       H  0.16845324  0.47898553  0.52110658     0.14800
C1306       C  0.19052692  0.47812377  0.45695303    -0.24200
H1307       H  0.05800785  0.52928065  0.48696983     0.05000
H1308       H  0.08576310  0.54950649  0.52413531     0.08200
H1309       H  0.04945522  0.49624691  0.52170182     0.08200
H1310       H  0.21616582  0.50357726  0.44383858     0.08200
H1311       H  0.17469832  0.45319912  0.43919136     0.08200
H1312       H  0.20271062  0.46733395  0.47707712     0.05000
C1313       C  0.05535814  0.48861330  0.31602196    -0.20800
C1314       C  0.08580988  0.52816131  0.32159005    -0.07400
C1315       C  0.07346424  0.55784665  0.32771987     0.13500
C1316       C  0.03218247  0.54637567  0.33180440    -0.20900
C1317       C  0.00233733  0.50594810  0.33170843    -0.07400
C1318       C  0.01398191  0.47692466  0.32154206     0.13500
C1319       C  0.98332363  0.43303533  0.31754218    -0.24200
H1320       H  0.06406522  0.46583506  0.31103587     0.14800
H1321       H  0.02382221  0.56886707  0.33902172     0.14800
C1322       C  0.10268637  0.60187358  0.33318868    -0.24200
H1323       H  0.99782067  0.41515294  0.30921916     0.05000
H1324       H  0.96136560  0.42985628  0.29839041     0.08200
H1325       H  0.96738599  0.41959457  0.34133458     0.08200
H1326       H  0.13458551  0.60934582  0.33127004     0.08200
H1327       H  0.09761926  0.61059037  0.35833633     0.08200
H1328       H  0.09763502  0.62039344  0.31449599     0.05000
C1329       C  0.55343972  0.66773511  0.45844655    -0.20800
C1330       C  0.54299023  0.63087338  0.44287468    -0.07400
C1331       C  0.53023132  0.59615176  0.46334246     0.13500
C1332       C  0.52408224  0.59826474  0.49772615    -0.20900
C1333       C  0.53032800  0.63415671  0.51288678    -0.07400
C1334       C  0.54699440  0.66978425  0.49298247     0.13500
C1335       C  0.55503812  0.70948340  0.50738673    -0.24200
H1336       H  0.56338191  0.69450652  0.44312943     0.14800
H1337       H  0.51211080  0.57094996  0.51266832     0.14800
C1338       C  0.52256568  0.55641074  0.44906084    -0.24200
H1339       H  0.56712709  0.73398172  0.48837695     0.05000
H1340       H  0.57770510  0.71826744  0.52725560     0.08200
H1341       H  0.52648856  0.70686562  0.51776179     0.08200
H1342       H  0.54965444  0.56075603  0.43461602     0.08200
H1343       H  0.49586992  0.54383611  0.43282325     0.08200
H1344       H  0.51640341  0.53359955  0.46881261     0.05000
C1345       C  0.53385949  0.54268485  0.28746521    -0.20800
C1346       C  0.56979353  0.57722965  0.29757087    -0.07400
C1347       C  0.60013541  0.57056818  0.31095702     0.13500
C1348       C  0.59024503  0.53176263  0.32211145    -0.20900
C1349       C  0.55133053  0.49819751  0.31803948    -0.07400
C1350       C  0.52361001  0.50337427  0.29860419     0.13500
C1351       C  0.48216508  0.46852857  0.29235194    -0.24200
H1352       H  0.51087498  0.54655353  0.27520730     0.14800
H1353       H  0.61243818  0.52834218  0.33631480     0.14800
C1354       C  0.64139630  0.60558967  0.31777788    -0.24200
H1355       H  0.46395716  0.47772101  0.27685357     0.05000
H1356       H  0.46568375  0.45640297  0.31628769     0.08200
H1357       H  0.48500336  0.44433049  0.27928491     0.08200
H1358       H  0.63889744  0.62681928  0.33525818     0.08200
H1359       H  0.65559274  0.62176400  0.29417825     0.08200
H1360       H  0.66170273  0.59546148  0.32881087     0.05000
C1361       C  0.35773453  0.55493904  0.41571907    -0.20800
C1362       C  0.37262103  0.54375587  0.38807940    -0.07400
C1363       C  0.34748222  0.50502765  0.37411292     0.13500
C1364       C  0.30565828  0.48574418  0.38120125    -0.20900
C1365       C  0.29001445  0.50565354  0.40034972    -0.07400
C1366       C  0.31631950  0.53322174  0.42381896     0.13500
C1367       C  0.29997553  0.54519240  0.45320807    -0.24200
H1368       H  0.37759403  0.58168414  0.42948054     0.14800
H1369       H  0.28520118  0.46030914  0.36642554     0.14800
C1370       C  0.36324526  0.48466163  0.35077408    -0.24200
H1371       H  0.28125429  0.55862278  0.44500932     0.05000
H1372       H  0.28150677  0.51829624  0.46914314     0.08200
H1373       H  0.32492845  0.56775834  0.46834538     0.08200
H1374       H  0.38745799  0.48113319  0.36298857     0.08200
H1375       H  0.37527250  0.50223819  0.32747878     0.08200
H1376       H  0.33903140  0.45410858  0.34393247     0.05000
C1377       C  0.39177812  0.89297902  0.50715905    -0.20800
C1378       C  0.41877327  0.88310519  0.49062407    -0.07400
C1379       C  0.44519282  0.87537144  0.51066435     0.13500
C1380       C  0.44374714  0.87792955  0.54543696    -0.20900
C1381       C  0.41624214  0.88689835  0.56214486    -0.07400
C1382       C  0.38981518  0.89463682  0.54225579     0.13500
C1383       C  0.35873479  0.90403095  0.55737178    -0.24200
H1384       H  0.37136842  0.89879101  0.49251152     0.14800
H1385       H  0.46391351  0.87148885  0.55981802     0.14800
C1386       C  0.47468813  0.86304297  0.49637961    -0.24200
H1387       H  0.34182309  0.91044304  0.53819059     0.05000
H1388       H  0.37388827  0.93110229  0.57318504     0.08200
H1389       H  0.33617280  0.87780435  0.57223346     0.08200
H1390       H  0.49789002  0.88771726  0.48059114     0.08200
H1391       H  0.45814623  0.83506481  0.48181473     0.08200
H1392       H  0.49122416  0.85661034  0.51589728     0.05000
C1393       C  0.46759933  0.00464349  0.37277979    -0.20800
C1394       C  0.45927888  0.97423129  0.35015204    -0.07400
C1395       C  0.49243517  0.98086576  0.32860181     0.13500
C1396       C  0.53306039  0.01087306  0.33514233    -0.20900
C1397       C  0.54227438  0.03611371  0.36262818    -0.07400
C1398       C  0.50756325  0.03277195  0.38143792     0.13500
C1399       C  0.51010358  0.05620870  0.41249688    -0.24200
H1400       H  0.44251421  0.00132810  0.38841867     0.14800
H1401       H  0.55745580  0.01357596  0.31906876     0.14800
C1402       C  0.48547316  0.95938877  0.29656043    -0.24200
H1403       H  0.48003717  0.04637472  0.42447861     0.05000
H1404       H  0.52164066  0.08822780  0.40645459     0.08200
H1405       H  0.52806582  0.05146420  0.43165415     0.08200
H1406       H  0.45300318  0.93888174  0.29326300     0.08200
H1407       H  0.50290327  0.94299830  0.29580310     0.08200
H1408       H  0.49618099  0.98160753  0.27575093     0.05000
C1409       C  0.55305482  0.78557788  0.40517655    -0.20800
C1410       C  0.52666180  0.74465947  0.41147615    -0.07400
C1411       C  0.49264950  0.73344258  0.43246044     0.13500
C1412       C  0.47744850  0.76004966  0.43500736    -0.20900
C1413       C  0.49725559  0.79738908  0.41829717    -0.07400
C1414       C  0.53818186  0.81274359  0.40783100     0.13500
C1415       C  0.56440954  0.85545197  0.39558976    -0.24200
H1416       H  0.58126540  0.79464767  0.39169930     0.14800
H1417       H  0.44717013  0.74899285  0.44529643     0.14800
C1418       C  0.46713717  0.69072334  0.44518375    -0.24200
H1419       H  0.59621065  0.86227591  0.39117671     0.05000
H1420       H  0.56469408  0.87680917  0.41445784     0.08200
H1421       H  0.55313621  0.86036512  0.37176228     0.08200
H1422       H  0.48183618  0.67215967  0.43988596     0.08200
H1423       H  0.43708401  0.67650188  0.43324739     0.08200
H1424       H  0.46250530  0.69040979  0.47236767     0.05000
C1425       C  0.33433748  0.72390807  0.46440819    -0.20800
C1426       C  0.31416533  0.74532456  0.45524970    -0.07400
C1427       C  0.27182663  0.72326737  0.45522512     0.13500
C1428       C  0.25408751  0.68222781  0.44803418    -0.20900
C1429       C  0.27942366  0.66580317  0.43949357    -0.07400
C1430       C  0.31895739  0.68451944  0.45229986     0.13500
C1431       C  0.34640268  0.66637738  0.44902160    -0.24200
H1432       H  0.36631412  0.74089733  0.46995344     0.14800
H1433       H  0.22208524  0.66601768  0.44244992     0.14800
C1434       C  0.24633184  0.74357446  0.45653212    -0.24200
H1435       H  0.35430532  0.66540230  0.42257703     0.05000
H1436       H  0.33107144  0.63544256  0.45970380     0.08200
H1437       H  0.37513572  0.68435212  0.46240105     0.08200
H1438       H  0.23081371  0.73973124  0.43259218     0.08200
H1439       H  0.26503847  0.77628842  0.46152785     0.08200
H1440       H  0.22325665  0.72983530  0.47677321     0.05000
C1441       C  0.10358313  0.56058173  0.03915643    -0.20800
C1442       C  0.11941306  0.59662276  0.05728616    -0.07400
C1443       C  0.12792913  0.63251500  0.04009113     0.13500
C1444       C  0.12360838  0.63194745  0.00544480    -0.20900
C1445       C  0.11205920  0.59677289  0.98669200    -0.07400
C1446       C  0.09973631  0.56002478  0.00434597     0.13500
C1447       C  0.08368626  0.52011439  0.98705127    -0.24200
H1448       H  0.09637241  0.53280836  0.05216612     0.14800
H1449       H  0.13222599  0.66022000  0.99273897     0.14800
C1450       C  0.14505279  0.67242013  0.05742534    -0.24200
H1451       H  0.07309648  0.49457480  0.00498669     0.05000
H1452       H  0.10786682  0.51973075  0.97139635     0.08200
H1453       H  0.05749529  0.51478751  0.97161700     0.08200
H1454       H  0.17458965  0.67973799  0.06823672     0.08200
H1455       H  0.12365435  0.67103926  0.07717586     0.08200
H1456       H  0.15036636  0.69742801  0.04017362     0.05000
C1457       C  0.03809564  0.53292243  0.18300406    -0.20800
C1458       C  0.06968189  0.52860900  0.19572077    -0.07400
C1459       C  0.06091607  0.48968971  0.20724617     0.13500
C1460       C  0.02212897  0.45558043  0.20203648    -0.20900
C1461       C  0.99245878  0.45904062  0.18383696    -0.07400
C1462       C  0.00094991  0.49930261  0.17489275     0.13500
C1463       C  0.97356770  0.50879665  0.15402874    -0.24200
H1464       H  0.04485391  0.56266918  0.17436220     0.14800
H1465       H  0.01662736  0.42581114  0.20923499     0.14800
C1466       C  0.09309950  0.48413270  0.22417514    -0.24200
H1467       H  0.98661199  0.54167148  0.14931123     0.05000
H1468       H  0.94456272  0.49974202  0.16680310     0.08200
H1469       H  0.96908931  0.49520539  0.12916302     0.08200
H1470       H  0.10371510  0.50381266  0.24623202     0.08200
H1471       H  0.11923439  0.49209770  0.20709401     0.08200
H1472       H  0.08135691  0.45244392  0.23259190     0.05000
C1473       C  0.20824064  0.59961422  0.23167464    -0.20800
C1474       C  0.24435259  0.60434698  0.21766810    -0.07400
C1475       C  0.28171713  0.63029359  0.23260584     0.13500
C1476       C  0.28112558  0.64751509  0.26303514    -0.20900
C1477       C  0.24436132  0.64049419  0.27789257    -0.07400
C1478       C  0.20825385  0.62012314  0.25987500     0.13500
C1479       C  0.16951138  0.62029903  0.26862816    -0.24200
H1480       H  0.17986671  0.58230549  0.21914533     0.14800
H1481       H  0.30923053  0.66456945  0.27611213     0.14800
C1482       C  0.32200429  0.63944751  0.21733076    -0.24200
H1483       H  0.15801552  0.62861979  0.24653289     0.05000
H1484       H  0.17406358  0.64319971  0.28740586     0.08200
H1485       H  0.14618189  0.58972726  0.27688096     0.08200
H1486       H  0.32712031  0.65580211  0.19342351     0.08200
H1487       H  0.32315817  0.61129424  0.21313057     0.08200
H1488       H  0.34747404  0.65888209  0.23360936     0.05000
C1489       C  0.23727298  0.72492050  0.26546359    -0.20800
C1490       C  0.25993554  0.72124352  0.23843392    -0.07400
C1491       C  0.30300937  0.74502093  0.24102665     0.13500
C1492       C  0.32099515  0.76677586  0.27022820    -0.20900
C1493       C  0.29895066  0.76925167  0.29785017    -0.07400
C1494       C  0.25589880  0.74777431  0.29486526     0.13500
C1495       C  0.22859375  0.74663092  0.32276154    -0.24200
H1496       H  0.20456339  0.70894438  0.26420529     0.14800
H1497       H  0.35371825  0.78200021  0.27166550     0.14800
C1498       C  0.33151853  0.74917458  0.21279092    -0.24200
H1499       H  0.20922536  0.75912241  0.31401362     0.05000
H1500       H  0.24578357  0.76437430  0.34435309     0.08200
H1501       H  0.20888509  0.71492194  0.33109593     0.08200
H1502       H  0.32257629  0.75876369  0.18982508     0.08200
H1503       H  0.33154395  0.72036175  0.20890348     0.08200
H1504       H  0.36331041  0.77224015  0.21778590     0.05000
C1505       C  0.47398634  0.55478712  0.97615759    -0.20800
C1506       C  0.44118311  0.53001034  0.99769480    -0.07400
C1507       C  0.40631274  0.49827008  0.98351257     0.13500
C1508       C  0.40457324  0.49347790  0.94880419    -0.20900
C1509       C  0.43579536  0.52057906  0.92689016    -0.07400
C1510       C  0.47165655  0.55102098  0.94127418     0.13500
C1511       C  0.50708854  0.58089339  0.92038968    -0.24200
H1512       H  0.50127525  0.57884809  0.98664638     0.14800
H1513       H  0.37706453  0.46934059  0.93871933     0.14800
C1514       C  0.36955163  0.47087260  0.00435592    -0.24200
H1515       H  0.53277189  0.60193236  0.93582895     0.05000
H1516       H  0.49791150  0.59937212  0.90517380     0.08200
H1517       H  0.51818468  0.56470577  0.90408568     0.08200
H1518       H  0.35806287  0.48896506  0.01757035     0.08200
H1519       H  0.37746434  0.45396687  0.02252020     0.08200
H1520       H  0.34452949  0.44845614  0.98909905     0.05000
C1521       C  0.58625507  0.55037769  0.14426530    -0.20800
C1522       C  0.57853655  0.52151281  0.16895583    -0.07400
C1523       C  0.53759314  0.49863790  0.18100172     0.13500
C1524       C  0.50607465  0.50325444  0.16652111    -0.20900
C1525       C  0.51350849  0.52961839  0.13973608    -0.07400
C1526       C  0.55502231  0.55431855  0.12907038     0.13500
C1527       C  0.56791507  0.58470626  0.10090100    -0.24200
H1528       H  0.61698514  0.56798862  0.13465479     0.14800
H1529       H  0.47517235  0.48522322  0.17561758     0.14800
C1530       C  0.52647685  0.47024788  0.20999770    -0.24200
H1531       H  0.60137035  0.60216593  0.09759522     0.05000
H1532       H  0.55755154  0.60690148  0.10577366     0.08200
H1533       H  0.55583736  0.56911249  0.07713316     0.08200
H1534       H  0.54297220  0.48781000  0.23177228     0.08200
H1535       H  0.53343957  0.44577908  0.20465358     0.08200
H1536       H  0.49362757  0.45570310  0.21631195     0.05000
C1537       C  0.34959883  0.54613724  0.23129337    -0.20800
C1538       C  0.33523853  0.54105594  0.19868091    -0.07400
C1539       C  0.29360234  0.53083961  0.19598006     0.13500
C1540       C  0.26956237  0.52968478  0.22469076    -0.20900
C1541       C  0.28572653  0.53929753  0.25700520    -0.07400
C1542       C  0.32588115  0.54517447  0.25978183     0.13500
C1543       C  0.34388929  0.54953089  0.29349240    -0.24200
H1544       H  0.38042437  0.55215260  0.23457511     0.14800
H1545       H  0.23857028  0.52305859  0.22149482     0.14800
C1546       C  0.27479950  0.52224888  0.16232462    -0.24200
H1547       H  0.37297772  0.54924697  0.29190060     0.05000
H1548       H  0.32289220  0.52387333  0.30965345     0.08200
H1549       H  0.34959129  0.57829235  0.30495052     0.08200
H1550       H  0.27722218  0.49693669  0.15090185     0.08200
H1551       H  0.29074063  0.54940761  0.14611856     0.08200
H1552       H  0.24222633  0.51353369  0.16380307     0.05000
C1553       C  0.46984201  0.65371188  0.20166532    -0.20800
C1554       C  0.49764129  0.64555927  0.18467789    -0.07400
C1555       C  0.51887748  0.63010907  0.20243044     0.13500
C1556       C  0.50583495  0.61564259  0.23457493    -0.20900
C1557       C  0.47304085  0.61744493  0.24992037    -0.07400
C1558       C  0.45624021  0.63901849  0.23365856     0.13500
C1559       C  0.42304241  0.64593402  0.24823648    -0.24200
H1560       H  0.45537509  0.66816545  0.18870394     0.14800
H1561       H  0.52210643  0.60335037  0.24769002     0.14800
C1562       C  0.55546862  0.62883382  0.18860492    -0.24200
H1563       H  0.41310280  0.66163638  0.23053546     0.05000
H1564       H  0.43296798  0.66471147  0.27049024     0.08200
H1565       H  0.39629559  0.61717567  0.25504839     0.08200
H1566       H  0.56586343  0.64446512  0.16428714     0.08200
H1567       H  0.54863286  0.59704920  0.18631613     0.08200
H1568       H  0.58108550  0.64447510  0.20579683     0.05000
C1569       C  0.33295538  0.59876316  0.03870928    -0.20800
C1570       C  0.32026131  0.55873422  0.04874395    -0.07400
C1571       C  0.27853195  0.53214064  0.05119475     0.13500
C1572       C  0.25270677  0.54855757  0.05504581    -0.20900
C1573       C  0.26927432  0.59057336  0.05972960    -0.07400
C1574       C  0.30870202  0.61616207  0.04678639     0.13500
C1575       C  0.32797099  0.66141753  0.04529170    -0.24200
H1576       H  0.36480685  0.61864325  0.03310091     0.14800
H1577       H  0.22104369  0.52817398  0.06096722     0.14800
C1578       C  0.26163433  0.48738544  0.05479528    -0.24200
H1579       H  0.34269563  0.67248306  0.02058270     0.05000
H1580       H  0.35148369  0.67480893  0.06451460     0.08200
H1581       H  0.30572517  0.67215624  0.04871486     0.08200
H1582       H  0.28549919  0.47868228  0.05132798     0.08200
H1583       H  0.23833748  0.47173693  0.03573856     0.08200
H1584       H  0.24747822  0.47724438  0.07980033     0.05000
C1585       C  0.48262174  0.92420351  0.99793881    -0.20800
C1586       C  0.50698644  0.91131658  0.01416911    -0.07400
C1587       C  0.53190983  0.90106712  0.99444930     0.13500
C1588       C  0.52830130  0.89975499  0.95956854    -0.20900
C1589       C  0.50073249  0.90878511  0.94354006    -0.07400
C1590       C  0.47925016  0.92340148  0.96328342     0.13500
C1591       C  0.45182076  0.93759970  0.94865669    -0.24200
H1592       H  0.46469419  0.93376322  0.01269959     0.14800
H1593       H  0.54562989  0.88940815  0.94492649     0.14800
C1594       C  0.56097384  0.88965455  0.00979480    -0.24200
H1595       H  0.44025732  0.95061178  0.96771782     0.05000
H1596       H  0.42480227  0.91199237  0.93791372     0.08200
H1597       H  0.46861309  0.96123374  0.92948252     0.08200
H1598       H  0.54415509  0.86280369  0.02602316     0.08200
H1599       H  0.58361131  0.91519613  0.02445505     0.08200
H1600       H  0.57773755  0.88221472  0.99074736     0.05000
C1601       C  0.47572133  0.98184697  0.14215981    -0.20800
C1602       C  0.51296210  0.98593812  0.15364438    -0.07400
C1603       C  0.53431196  0.01761072  0.17601404     0.13500
C1604       C  0.52062847  0.04613072  0.18250809    -0.20900
C1605       C  0.48751733  0.04565130  0.16582636    -0.07400
C1606       C  0.46281865  0.01034651  0.14822016     0.13500
C1607       C  0.42453296  0.00486654  0.13248955    -0.24200
H1608       H  0.45735444  0.95743427  0.12579486     0.14800
H1609       H  0.53811073  0.07084614  0.19855515     0.14800
C1610       C  0.57259123  0.02302677  0.19125175    -0.24200
H1611       H  0.40811949  0.97545679  0.11974561     0.05000
H1612       H  0.43159532  0.02905423  0.11385300     0.08200
H1613       H  0.40401172  0.00593637  0.15193596     0.08200
H1614       H  0.59501343  0.02699415  0.17148342     0.08200
H1615       H  0.56584665  0.99611459  0.20652057     0.08200
H1616       H  0.58630793  0.04982630  0.20748342     0.05000
C1617       C  0.49323624  0.75323418  0.25530675    -0.20800
C1618       C  0.52667500  0.74647164  0.25798386    -0.07400
C1619       C  0.55751206  0.76580573  0.23289065     0.13500
C1620       C  0.55434111  0.79122779  0.20753284    -0.20900
C1621       C  0.51975501  0.79656489  0.20460482    -0.07400
C1622       C  0.48840164  0.77544835  0.22908793     0.13500
C1623       C  0.44783182  0.77405319  0.22760068    -0.24200
H1624       H  0.46888421  0.73930719  0.27353498     0.14800
H1625       H  0.57816960  0.80520801  0.18885414     0.14800
C1626       C  0.59304981  0.75838325  0.23182353    -0.24200
H1627       H  0.42885876  0.76031034  0.25023880     0.05000
H1628       H  0.43043955  0.75547542  0.20638709     0.08200
H1629       H  0.45193006  0.80465764  0.22497426     0.08200
H1630       H  0.58212493  0.72558623  0.22910462     0.08200
H1631       H  0.61038861  0.76913435  0.25500971     0.08200
H1632       H  0.61386940  0.77441251  0.21060178     0.05000
C1633       C  0.41390745  0.86887766  0.23794972    -0.20800
C1634       C  0.44683668  0.87596188  0.21808210    -0.07400
C1635       C  0.48317968  0.88195291  0.23293791     0.13500
C1636       C  0.48304350  0.87304107  0.26633436    -0.20900
C1637       C  0.44866747  0.86205987  0.28561694    -0.07400
C1638       C  0.41546276  0.86442774  0.27194121     0.13500
C1639       C  0.38341326  0.86653437  0.29231041    -0.24200
H1640       H  0.38702123  0.86696450  0.22695275     0.14800
H1641       H  0.50995538  0.87512788  0.27744846     0.14800
C1642       C  0.52210093  0.89624516  0.21453320    -0.24200
H1643       H  0.38638647  0.89697696  0.29025220     0.05000
H1644       H  0.38622821  0.86012472  0.31829159     0.08200
H1645       H  0.35310990  0.84539468  0.28297237     0.08200
H1646       H  0.54312567  0.92812689  0.22066284     0.08200
H1647       H  0.51596541  0.89307181  0.18819515     0.08200
H1648       H  0.53649545  0.87789765  0.22132104     0.05000
C1649       C  0.31058558  0.81674207  0.12194082    -0.20800
C1650       C  0.33452890  0.81194163  0.09732292    -0.07400
C1651       C  0.31547502  0.78642950  0.07036346     0.13500
C1652       C  0.27350279  0.76044324  0.07230995    -0.20900
C1653       C  0.25208144  0.75754195  0.10191073    -0.07400
C1654       C  0.26883924  0.79020277  0.12383062     0.13500
C1655       C  0.24488954  0.79247832  0.15306188    -0.24200
H1656       H  0.32481633  0.83809047  0.14174717     0.14800
H1657       H  0.25966757  0.73690193  0.05401536     0.14800
C1658       C  0.33867043  0.78468128  0.04032500    -0.24200
H1659       H  0.24743588  0.82283909  0.15381470     0.05000
H1660       H  0.25685345  0.78707472  0.17637161     0.08200
H1661       H  0.21227928  0.76985190  0.15141139     0.08200
H1662       H  0.32602173  0.79079465  0.01776425     0.08200
H1663       H  0.37129982  0.80741926  0.04089313     0.08200
H1664       H  0.33573303  0.75421604  0.03847952     0.05000
C1665       C  0.45668174  0.71438705  0.03254101    -0.20800
C1666       C  0.48586820  0.70473750  0.04375517    -0.07400
C1667       C  0.52619645  0.73654780  0.04767940     0.13500
C1668       C  0.53213568  0.77552530  0.05229250    -0.20900
C1669       C  0.49869644  0.78177809  0.05219326    -0.07400
C1670       C  0.46325160  0.75359207  0.03610530     0.13500
C1671       C  0.43018138  0.76289714  0.02699386    -0.24200
H1672       H  0.42687393  0.69072127  0.02575604     0.14800
H1673       H  0.56082276  0.79872210  0.06159134     0.14800
C1674       C  0.56181651  0.72953030  0.05181292    -0.24200
H1675       H  0.43967819  0.79526876  0.03059197     0.05000
H1676       H  0.42273097  0.75591313  0.00046655     0.08200
H1677       H  0.40262933  0.74436877  0.04242733     0.08200
H1678       H  0.56159390  0.70883387  0.03233453     0.08200
H1679       H  0.56106663  0.71688820  0.07678455     0.08200
H1680       H  0.59091772  0.75821041  0.04923901     0.05000
loop_ 
_geom_bond_atom_site_label_1 
_geom_bond_atom_site_label_2 
_geom_bond_distance 
_geom_bond_site_symmetry_2 
_ccdc_geom_bond_type 
Fe1          O17   2.069       .  S
Fe1           O7   2.008       .  S
Fe1          O14   2.034       .  S
Fe1           O6   2.037       .  S
Fe1          O12   1.927       .  S
Fe2           O5   2.072       .  S
Fe2           O9   2.082       .  S
Fe2          O13   2.078       .  S
Fe2          O18   2.030       .  S
Fe2          O12   1.895       .  S
Fe3          O21   2.216       .  S
Fe3           O8   2.084       .  S
Fe3          O15   2.246       .  S
Fe3           O4   2.184       .  S
Fe3          O12   1.921       .  S
O4           C11   1.306       .  A
O5           C19   1.266       .  A
O6           C11   1.289       .  A
O7           C10   1.224       .  A
O8           C20   1.281       .  A
O9           C22   1.287       .  A
C10          O15   1.280       .  A
C10        C1602   1.536       .  S
C11        C1586   1.502       .  S
O13          C16   1.261       .  A
O14          C16   1.249       .  A
C16        C1650   1.469       .  S
O17          C22   1.280       .  A
O18          C20   1.275       .  A
C19          O21   1.301       .  A
C19        C1621   1.565       .  S
C20        C1669   1.468       .  S
C22        C1634   1.455       .  S
Fe23         O39   2.053       .  S
Fe23         O29   2.032       .  S
Fe23         O36   2.043       .  S
Fe23         O28   2.028       .  S
Fe23         O34   1.944       .  S
Fe24         O27   2.116       .  S
Fe24         O31   2.071       .  S
Fe24         O35   2.071       .  S
Fe24         O40   2.030       .  S
Fe24         O34   1.917       .  S
Fe25         O43   2.204       .  S
Fe25         O30   2.090       .  S
Fe25         O37   2.174       .  S
Fe25         O26   2.175       .  S
Fe25         O34   1.913       .  S
O26          C33   1.299       .  A
O27          C41   1.282       .  A
O28          C33   1.272       .  A
O29          C32   1.247       .  A
O30          C42   1.274       .  A
O31          C44   1.271       .  A
C32          O37   1.286       .  A
C32        C1525   1.519       .  S
C33        C1506   1.509   1_554  S
O35          C38   1.269       .  A
O36          C38   1.260       .  A
C38        C1666   1.475       .  S
O39          C44   1.273       .  A
O40          C42   1.269       .  A
C41          O43   1.299       .  A
C41        C1538   1.562       .  S
C42        C1570   1.472       .  S
C44        C1554   1.468       .  S
Fe45         O61   2.058       .  S
Fe45         O51   2.025       .  S
Fe45         O58   2.025       .  S
Fe45         O50   2.053       .  S
Fe45         O56   1.986       .  S
Fe46         O49   2.113       .  S
Fe46         O53   2.050       .  S
Fe46         O57   2.086       .  S
Fe46         O62   2.007       .  S
Fe46         O56   1.957       .  S
Fe47         O65   2.185       .  S
Fe47         O52   2.078       .  S
Fe47         O59   2.130       .  S
Fe47         O48   2.135       .  S
Fe47         O56   1.963       .  S
O48          C55   1.291       .  A
O49          C63   1.285       .  A
O50          C55   1.276       .  A
O51          C54   1.255       .  A
O52          C64   1.266       .  A
O53          C66   1.258       .  A
C54          O59   1.280       .  A
C54        C1458   1.496       .  S
C55        C1442   1.502       .  S
O57          C60   1.268       .  A
O58          C60   1.260       .  A
C60        C1573   1.488       .  S
O61          C66   1.268       .  A
O62          C64   1.259       .  A
C63          O65   1.299       .  A
C63        C1490   1.564       .  S
C64        C1653   1.461       .  S
C66        C1474   1.456       .  S
Fe67         O83   2.028       .  S
Fe67         O73   1.993       .  S
Fe67         O80   2.030       .  S
Fe67         O72   2.025       .  S
Fe67         O78   1.950       .  S
Fe68         O71   2.052       .  S
Fe68         O75   2.086       .  S
Fe68         O79   2.046       .  S
Fe68         O84   2.021       .  S
Fe68         O78   1.904       .  S
Fe69         O87   2.233       .  S
Fe69         O74   2.092       .  S
Fe69         O81   2.203       .  S
Fe69         O70   2.188       .  S
Fe69         O78   1.922       .  S
O70          C77   1.306       .  A
O71          C85   1.264       .  A
O72          C77   1.276       .  A
O73          C76   1.242       .  A
O74          C86   1.277       .  A
O75          C88   1.284       .  A
C76          O81   1.285       .  A
C76        C1394   1.513       .  S
C77        C1378   1.520       .  S
O79          C82   1.256       .  A
O80          C82   1.248       .  A
C82        C1413   1.469       .  S
O83          C88   1.275       .  A
O84          C86   1.272       .  A
C85          O87   1.305       .  A
C85        C1493   1.555       .  S
C86        C1426   1.479       .  S
C88        C1637   1.452       .  S
Fe89        O105   2.057       .  S
Fe89         O95   2.001       .  S
Fe89        O102   2.014       .  S
Fe89         O94   2.036       .  S
Fe89        O100   1.927       .  S
Fe90         O93   2.099       .  S
Fe90         O97   2.064       .  S
Fe90        O101   2.104       .  S
Fe90        O106   2.021       .  S
Fe90        O100   1.889       .  S
Fe91        O109   2.185       .  S
Fe91         O96   2.065       .  S
Fe91        O103   2.160       .  S
Fe91         O92   2.193       .  S
Fe91        O100   1.916       .  S
O92          C99   1.310       .  A
O93         C107   1.276       .  A
O94          C99   1.285       .  A
O95          C98   1.235       .  A
O96         C108   1.273       .  A
O97         C110   1.278       .  A
C98         O103   1.268       .  A
C98        C1346   1.484       .  S
C99        C1330   1.507       .  S
O101        C104   1.269       .  A
O102        C104   1.245       .  A
C104       C1362   1.480       .  S
O105        C110   1.285       .  A
O106        C108   1.273       .  A
C107        O109   1.293       .  A
C107       C1618   1.565       .  S
C108       C1410   1.460       .  S
C110       C1557   1.477       .  S
Fe111       O127   2.020       .  S
Fe111       O117   2.016       .  S
Fe111       O124   2.010       .  S
Fe111       O116   2.026       .  S
Fe111       O122   1.951       .  S
Fe112       O115   2.112       .  S
Fe112       O119   2.084       .  S
Fe112       O123   2.098       .  S
Fe112       O128   2.013       .  S
Fe112       O122   1.933       .  S
Fe113       O131   2.211       .  S
Fe113       O118   2.098       .  S
Fe113       O125   2.160       .  S
Fe113       O114   2.157       .  S
Fe113       O122   1.927       .  S
O114        C121   1.296       .  A
O115        C129   1.282       .  A
O116        C121   1.276       .  A
O117        C120   1.250       .  A
O118        C130   1.274       .  A
O119        C132   1.277       .  A
C120        O125   1.287       .  A
C120       C1314   1.505       .  S
C121       C1298   1.480       .  S
O123        C126   1.261       .  A
O124        C126   1.250       .  A
C126       C1429   1.477       .  S
O127        C132   1.271       .  A
O128        C130   1.265       .  A
C129        O131   1.303       .  A
C129       C1541   1.568       .  S
C130       C1365   1.470       .  S
C132       C1477   1.464       .  S
Fe133       O149   2.075       .  S
Fe133       O139   2.015       .  S
Fe133       O146   2.027       .  S
Fe133       O138   2.028       .  S
Fe133       O144   1.942       .  S
Fe134       O137   2.111       .  S
Fe134       O141   2.057       .  S
Fe134       O145   2.086       .  S
Fe134       O150   2.019       .  S
Fe134       O144   1.913       .  S
Fe135       O153   2.171       .  S
Fe135       O140   2.090       .  S
Fe135       O147   2.163       .  S
Fe135       O136   2.200       .  S
Fe135       O144   1.921       .  S
O136        C143   1.310       .  A
O137        C151   1.282       .  A
O138        C143   1.279       .  A
O139        C142   1.236       .  A
O140        C152   1.277       .  A
O141        C154   1.268       .  A
C142        O147   1.270       .  A
C142       C1349   1.497       .  S
C143       C1218   1.515       .  S
O145        C148   1.268       .  A
O146        C148   1.256       .  A
C148       C1282   1.481       .  S
O149        C154   1.280       .  A
O150        C152   1.269       .  A
C151        O153   1.293       .  A
C151       C1237   1.554       .  S
C152       C1266   1.466       .  S
C154       C1250   1.481       .  S
Fe155       O171   2.046       .  S
Fe155       O161   2.042       .  S
Fe155       O168   2.039       .  S
Fe155       O160   2.033       .  S
Fe155       O166   1.985       .  S
Fe156       O159   2.112       .  S
Fe156       O163   2.049       .  S
Fe156       O167   2.063       .  S
Fe156       O172   2.018       .  S
Fe156       O166   1.946       .  S
Fe157       O175   2.204       .  S
Fe157       O162   2.083       .  S
Fe157       O169   2.142       .  S
Fe157       O158   2.168       .  S
Fe157       O166   1.934       .  S
O158        C165   1.296       .  A
O159        C173   1.282       .  A
O160        C165   1.271       .  A
O161        C164   1.260       .  A
O162        C174   1.269       .  A
O163        C176   1.259       .  A
C164        O169   1.285       .  A
C164       C1317   1.504   1_655  S
C165       C1154   1.520       .  S
O167        C170   1.265       .  A
O168        C170   1.262       .  A
C170       C1205   1.477       .  S
O171        C176   1.266       .  A
O172        C174   1.263       .  A
C173        O175   1.301       .  A
C173       C1189   1.558       .  S
C174       C1285   1.466       .  S
C176       C1173   1.453       .  S
Fe177       O193   2.061       .  S
Fe177       O183   2.000       .  S
Fe177       O190   2.035       .  S
Fe177       O182   2.032       .  S
Fe177       O188   1.934       .  S
Fe178       O181   2.065       .  S
Fe178       O185   2.076       .  S
Fe178       O189   2.077       .  S
Fe178       O194   2.025       .  S
Fe178       O188   1.901       .  S
Fe179       O197   2.208       .  S
Fe179       O184   2.087       .  S
Fe179       O191   2.257       .  S
Fe179       O180   2.149       .  S
Fe179       O188   1.923       .  S
O180        C187   1.296       .  A
O181        C195   1.262       .  A
O182        C187   1.284       .  A
O183        C186   1.213       .  A
O184        C196   1.284       .  A
O185        C198   1.288       .  A
C186        O191   1.289       .  A
C186       C1397   1.543       .  S
C187       C1106   1.466       .  S
O189        C192   1.260       .  A
O190        C192   1.248       .  A
C192       C1269   1.469       .  S
O193        C198   1.276       .  A
O194        C196   1.279       .  A
C195        O197   1.297       .  A
C195       C1141   1.549       .  S
C196       C1202   1.466       .  S
C198       C1122   1.456       .  S
Fe199       O215   2.102       .  S
Fe199       O205   2.023       .  S
Fe199       O212   2.025       .  S
Fe199       O204   2.093       .  S
Fe199       O210   1.935       .  S
Fe200       O203   2.133       .  S
Fe200       O207   2.001       .  S
Fe200       O211   2.077       .  S
Fe200       O216   2.008       .  S
Fe200       O210   1.926       .  S
Fe201       O219   2.181       .  S
Fe201       O206   2.120       .  S
Fe201       O213   2.167       .  S
Fe201       O202   2.092       .  S
Fe201       O210   1.937       .  S
O202        C209   1.279       .  A
O203        C217   1.283       .  A
O204        C209   1.278       .  A
O205        C208   1.253       .  A
O206        C218   1.280       .  A
O207        C220   1.266       .  A
C208        O213   1.287       .  A
C208       C1522   1.520       .  S
C209       C1061   1.511       .  S
O211        C214   1.270       .  A
O212        C214   1.253       .  A
C214       C1090   1.466       .  S
O215        C220   1.283       .  A
O216        C218   1.261       .  A
C217        O219   1.301       .  A
C217       C1186   1.563       .  S
C218       C1074   1.481       .  S
C220       C1253   1.468       .  S
Fe221       O237   2.058       .  S
Fe221       O227   2.005       .  S
Fe221       O234   2.037       .  S
Fe221       O226   2.047       .  S
Fe221       O232   1.960       .  S
Fe222       O225   2.062       .  S
Fe222       O229   2.066       .  S
Fe222       O233   2.051       .  S
Fe222       O238   2.021       .  S
Fe222       O232   1.927       .  S
Fe223       O241   2.209       .  S
Fe223       O228   2.092       .  S
Fe223       O235   2.197       .  S
Fe223       O224   2.138       .  S
Fe223       O232   1.947       .  S
O224        C231   1.291       .  A
O225        C239   1.261       .  A
O226        C231   1.280       .  A
O227        C230   1.240       .  A
O228        C240   1.282       .  A
O229        C242   1.281       .  A
C230        O235   1.285       .  A
C230       C1605   1.511       .  S
C231       C1026   1.479       .  S
O233        C236   1.257       .  A
O234        C236   1.251       .  A
C236       C1042   1.468       .  S
O237        C242   1.280       .  A
O238        C240   1.276       .  A
C239        O241   1.296       .  A
C239       C1234   1.551       .  S
C240       C1093   1.469       .  S
C242       C1125   1.459       .  S
Fe243       O259   2.052       .  S
Fe243       O249   2.006       .  S
Fe243       O256   2.005       .  S
Fe243       O248   2.023       .  S
Fe243       O254   1.924       .  S
Fe244       O247   2.116       .  S
Fe244       O251   2.065       .  S
Fe244       O255   2.097       .  S
Fe244       O260   2.019       .  S
Fe244       O254   1.900       .  S
Fe245       O263   2.183       .  S
Fe245       O250   2.098       .  S
Fe245       O257   2.213       .  S
Fe245       O246   2.204       .  S
Fe245       O254   1.910       .  S
O246        C253   1.312       .  A
O247        C261   1.281       .  A
O248        C253   1.283       .  A
O249        C252   1.226       .  A
O250        C262   1.279       .  A
O251        C264   1.277       .  A
C252        O257   1.278       .  A
C252       C1461   1.521       .  S
C253       C1013   1.506       .  S
O255        C258   1.268       .  A
O256        C258   1.246       .  A
C258       C1077   1.475       .  S
O259        C264   1.280       .  A
O260        C262   1.271       .  A
C261        O263   1.297       .  A
C261       C1138   1.560       .  S
C262       C1045   1.470       .  S
C264       C1170   1.452       .  S
Fe265       O281   2.065       .  S
Fe265       O271   2.095       .  S
Fe265       O278   2.111       .  S
Fe265       O270   2.004       .  S
Fe265       O276   1.917       .  S
Fe266       O269   1.965       .  S
Fe266       O273   2.079       .  S
Fe266       O277   2.007       .  S
Fe266       O282   2.093       .  S
Fe266       O276   1.935       .  S
Fe267       O285   2.156       .  S
Fe267       O272   2.133       .  S
Fe267       O279   2.168       .  S
Fe267       O268   2.091       .  S
Fe267       O276   1.924       .  S
O268        C275   1.269       .  A
O269        C283   1.238       .  A
O270        C275   1.258       .  A
O271        C274   1.283       .  A
O272        C284   1.298       .  A
O273        C286   1.282       .  A
C274        O279   1.301       .  A
C274        C946   1.541       .  S
C275        C981   1.464       .  S
O277        C280   1.237       .  A
O278        C280   1.262       .  A
C280        C994   1.478       .  S
O281        C286   1.271       .  A
O282        C284   1.297       .  A
C283        O285   1.282       .  A
C283        C933   1.494       .  S
C284       C1381   1.521       .  S
C286        C962   1.482       .  S
Fe287       O303   2.006       .  S
Fe287       O293   2.117       .  S
Fe287       O300   2.086       .  S
Fe287       O292   2.003       .  S
Fe287       O298   1.931       .  S
Fe288       O291   1.977       .  S
Fe288       O295   2.114       .  S
Fe288       O299   2.027       .  S
Fe288       O304   2.071       .  S
Fe288       O298   1.926       .  S
Fe289       O307   2.189       .  S
Fe289       O294   2.122       .  S
Fe289       O301   2.183       .  S
Fe289       O290   2.130       .  S
Fe289       O298   1.935       .  S
O290        C297   1.288       .  A
O291        C305   1.254       .  A
O292        C297   1.268       .  A
O293        C296   1.275       .  A
O294        C306   1.280       .  A
O295        C308   1.281       .  A
C296        O301   1.296       .  A
C296        C885   1.554       .  S
C297        C997   1.483       .  S
O299        C302   1.244       .  A
O300        C302   1.266       .  A
C302        C914   1.464       .  S
O303        C308   1.273       .  A
O304        C306   1.270       .  A
C305        O307   1.296       .  A
C305        C866   1.513       .  S
C306       C1333   1.511       .  S
C308        C898   1.468       .  S
Fe309       O325   2.063       .  S
Fe309       O315   2.074       .  S
Fe309       O322   2.068       .  S
Fe309       O314   2.030       .  S
Fe309       O320   1.923       .  S
Fe310       O313   2.022       .  S
Fe310       O317   2.063       .  S
Fe310       O321   2.035       .  S
Fe310       O326   2.048       .  S
Fe310       O320   1.952       .  S
Fe311       O329   2.174       .  S
Fe311       O316   2.127       .  S
Fe311       O323   2.150       .  S
Fe311       O312   2.101       .  S
Fe311       O320   1.941       .  S
O312        C319   1.284       .  A
O313        C327   1.244       .  A
O314        C319   1.277       .  A
O315        C318   1.264       .  A
O316        C328   1.288       .  A
O317        C330   1.282       .  A
C318        O323   1.282       .  A
C318        C850   1.522       .  S
C319        C917   1.468       .  S
O321        C324   1.251       .  A
O322        C324   1.261       .  A
C324        C978   1.471       .  S
O325        C330   1.283       .  A
O326        C328   1.279       .  A
C327        O329   1.281       .  A
C327        C818   1.504       .  S
C328       C1301   1.484       .  S
C330        C834   1.458       .  S
Fe331       O347   2.001       .  S
Fe331       O337   2.154       .  S
Fe331       O344   2.116       .  S
Fe331       O336   2.027       .  S
Fe331       O342   1.920       .  S
Fe332       O335   2.021       .  S
Fe332       O339   2.106       .  S
Fe332       O343   2.035       .  S
Fe332       O348   2.076       .  S
Fe332       O342   1.915       .  S
Fe333       O351   2.211       .  S
Fe333       O338   2.100       .  S
Fe333       O345   2.163       .  S
Fe333       O334   2.128       .  S
Fe333       O342   1.944       .  S
O334        C341   1.280       .  A
O335        C349   1.257       .  A
O336        C341   1.257       .  A
O337        C340   1.292       .  A
O338        C350   1.276       .  A
O339        C352   1.281       .  A
C340        O345   1.301       .  A
C340        C882   1.567       .  S
C341        C805   1.481       .  S
O343        C346   1.250       .  A
O344        C346   1.273       .  A
C346        C789   1.482       .  S
O347        C352   1.269       .  A
O348        C350   1.268       .  A
C349        O351   1.298       .  A
C349        C773   1.530       .  S
C350       C1589   1.507       .  S
C352        C965   1.465       .  S
Fe353       O369   2.033       .  S
Fe353       O359   2.118       .  S
Fe353       O366   2.075       .  S
Fe353       O358   2.023       .  S
Fe353       O364   1.907       .  S
Fe354       O357   2.001       .  S
Fe354       O361   2.083       .  S
Fe354       O365   2.049       .  S
Fe354       O370   2.169       .  S
Fe354       O364   1.913       .  S
Fe355       O373   2.138       .  S
Fe355       O360   2.051       .  S
Fe355       O367   2.144       .  S
Fe355       O356   2.084       .  S
Fe355       O364   1.963       .  S
O356        C363   1.264       .  A
O357        C371   1.232       .  A
O358        C363   1.256       .  A
O359        C362   1.289       .  A
O360        C372   1.286       .  A
O361        C374   1.278       .  A
C362        O367   1.301       .  A
C362        C853   1.532       .  S
C363        C757   1.472       .  S
O365        C368   1.260       .  A
O366        C368   1.269       .  A
C368        C802   1.474       .  S
O369        C374   1.255       .  A
O370        C372   1.307       .  A
C371        O373   1.263       .  A
C371        C738   1.507       .  S
C372       C1509   1.517       .  S
C374        C901   1.489       .  S
Fe375       O391   2.033       .  S
Fe375       O381   2.079       .  S
Fe375       O388   2.093       .  S
Fe375       O380   2.006       .  S
Fe375       O386   1.924       .  S
Fe376       O379   1.983       .  S
Fe376       O383   2.084       .  S
Fe376       O387   2.026       .  S
Fe376       O392   2.109       .  S
Fe376       O386   1.924       .  S
Fe377       O395   2.194       .  S
Fe377       O382   2.065       .  S
Fe377       O389   2.168       .  S
Fe377       O378   2.132       .  S
Fe377       O386   1.932       .  S
O378        C385   1.290       .  A
O379        C393   1.242       .  A
O380        C385   1.274       .  A
O381        C384   1.264       .  A
O382        C394   1.274       .  A
O383        C396   1.276       .  A
C384        O389   1.292       .  A
C384        C949   1.524       .  S
C385        C786   1.473       .  S
O387        C390   1.254       .  A
O388        C390   1.272       .  A
C390        C754   1.458       .  S
O391        C396   1.268       .  A
O392        C394   1.280       .  A
C393        O395   1.291       .  A
C393        C722   1.499       .  S
C394       C1445   1.512       .  S
C396        C837   1.467       .  S
Fe397       O413   1.998       .  S
Fe397       O403   2.114       .  S
Fe397       O410   2.057       .  S
Fe397       O402   2.012       .  S
Fe397       O408   1.890       .  S
Fe398       O401   1.993       .  S
Fe398       O405   2.103       .  S
Fe398       O409   2.042       .  S
Fe398       O414   2.162       .  S
Fe398       O408   1.917       .  S
Fe399       O417   2.155       .  S
Fe399       O404   2.049       .  S
Fe399       O411   2.165       .  S
Fe399       O400   2.129       .  S
Fe399       O408   1.962       .  S
O400        C407   1.280       .  A
O401        C415   1.232       .  A
O402        C407   1.257       .  A
O403        C406   1.279       .  A
O404        C416   1.277       .  A
O405        C418   1.283       .  A
C406        O411   1.295       .  A
C406        C658   1.553       .  S
C407        C690   1.484       .  S
O409        C412   1.258       .  A
O410        C412   1.265       .  A
C412        C706   1.468       .  S
O413        C418   1.264       .  A
O414        C416   1.301       .  A
C415        O417   1.271       .  A
C415        C869   1.509       .  S
C416       C1221   1.517       .  S
C418        C677   1.478       .  S
Fe419       O435   2.031       .  S
Fe419       O425   2.144       .  S
Fe419       O432   2.097       .  S
Fe419       O424   2.028       .  S
Fe419       O430   1.908       .  S
Fe420       O423   1.987       .  S
Fe420       O427   2.083       .  S
Fe420       O431   2.006       .  S
Fe420       O436   2.160       .  S
Fe420       O430   1.897       .  S
Fe421       O439   2.189       .  S
Fe421       O426   2.075       .  S
Fe421       O433   2.157       .  S
Fe421       O422   2.115       .  S
Fe421       O430   1.969       .  S
O422        C429   1.271       .  A
O423        C437   1.227       .  A
O424        C429   1.255       .  A
O425        C428   1.292       .  A
O426        C438   1.284       .  A
O427        C440   1.280       .  A
C428        O433   1.304       .  A
C428        C613   1.556       .  S
C429        C709   1.482       .  S
O431        C434   1.255       .  A
O432        C434   1.274       .  A
C434        C645   1.479       .  S
O435        C440   1.263       .  A
O436        C438   1.296       .  A
C437        O439   1.271       .  A
C437        C821   1.510       .  S
C438       C1157   1.525       .  S
C440        C626   1.484       .  S
Fe441       O457   2.042       .  S
Fe441       O447   2.099       .  S
Fe441       O454   2.082       .  S
Fe441       O446   2.009       .  S
Fe441       O452   1.971       .  S
Fe442       O445   1.986       .  S
Fe442       O449   2.069       .  S
Fe442       O453   2.030       .  S
Fe442       O458   2.047       .  S
Fe442       O452   1.953       .  S
Fe443       O461   2.206       .  S
Fe443       O448   2.055       .  S
Fe443       O455   2.161       .  S
Fe443       O444   2.118       .  S
Fe443       O452   1.960       .  S
O444        C451   1.286       .  A
O445        C459   1.253       .  A
O446        C451   1.272       .  A
O447        C450   1.273       .  A
O448        C460   1.265       .  A
O449        C462   1.267       .  A
C450        O455   1.290       .  A
C450        C594   1.532       .  S
C451        C642   1.480       .  S
O453        C456   1.253       .  A
O454        C456   1.268       .  A
C456        C693   1.460       .  S
O457        C462   1.267       .  A
O458        C460   1.265       .  A
C459        O461   1.304       .  A
C459        C930   1.525       .  S
C460       C1109   1.474       .  S
C462        C578   1.457       .  S
Fe463       O479   1.967       .  S
Fe463       O469   2.101       .  S
Fe463       O476   2.100       .  S
Fe463       O468   1.968       .  S
Fe463       O474   1.955       .  S
Fe464       O467   1.997       .  S
Fe464       O471   2.128       .  S
Fe464       O475   2.021       .  S
Fe464       O480   2.075       .  S
Fe464       O474   1.917       .  S
Fe465       O483   2.169       .  S
Fe465       O470   2.097       .  S
Fe465       O477   2.162       .  S
Fe465       O466   2.139       .  S
Fe465       O474   1.921       .  S
O466        C473   1.293       .  A
O467        C481   1.257       .  A
O468        C473   1.272       .  A
O469        C472   1.268       .  A
O470        C482   1.277       .  A
O471        C484   1.291       .  A
C472        O477   1.286       .  A
C472        C610   1.537       .  S
C473        C549   1.476       .  S
O475        C478   1.240       .  A
O476        C478   1.262       .  A
C478        C562   1.467       .  S
O479        C484   1.269       .  A
O480        C482   1.272       .  A
C481        O483   1.293       .  A
C481        C741   1.501       .  S
C482       C1058   1.500       .  S
C484        C674   1.453       .  S
Fe485       O501   2.059       .  S
Fe485       O491   2.048       .  S
Fe485       O498   2.052       .  S
Fe485       O490   2.011       .  S
Fe485       O496   1.907       .  S
Fe486       O489   2.033       .  S
Fe486       O493   2.027       .  S
Fe486       O497   2.075       .  S
Fe486       O502   2.020       .  S
Fe486       O496   1.955       .  S
Fe487       O505   2.183       .  S
Fe487       O492   2.150       .  S
Fe487       O499   2.195       .  S
Fe487       O488   2.101       .  S
Fe487       O496   1.919       .  S
O488        C495   1.278       .  A
O489        C503   1.250       .  A
O490        C495   1.266       .  A
O491        C494   1.269       .  A
O492        C504   1.297       .  A
O493        C506   1.269       .  A
C494        O499   1.294       .  A
C494        C661   1.551       .  S
C495        C565   1.464       .  S
O497        C500   1.261       .  A
O498        C500   1.257       .  A
C500        C530   1.468       .  S
O501        C506   1.275       .  A
O502        C504   1.278       .  A
C503        O505   1.287       .  A
C503        C770   1.511       .  S
C504       C1029   1.475       .  S
C506        C581   1.442       .  S
Fe507       O523   2.014       .  S
Fe507       O513   2.127       .  S
Fe507       O520   2.124       .  S
Fe507       O512   2.040       .  S
Fe507       O518   1.918       .  S
Fe508       O511   1.996       .  S
Fe508       O515   2.096       .  S
Fe508       O519   2.014       .  S
Fe508       O524   2.136       .  S
Fe508       O518   1.903       .  S
Fe509       O527   2.176       .  S
Fe509       O514   2.065       .  S
Fe509       O521   2.143       .  S
Fe509       O510   2.100       .  S
Fe509       O518   1.958       .  S
O510        C517   1.276       .  A
O511        C525   1.235       .  A
O512        C517   1.266       .  A
O513        C516   1.289       .  A
O514        C526   1.279       .  A
O515        C528   1.278       .  A
C516        O521   1.298       .  A
C516        C597   1.541       .  S
C517        C533   1.479       .  S
O519        C522   1.253       .  A
O520        C522   1.280       .  A
C522        C546   1.483       .  S
O523        C528   1.264       .  A
O524        C526   1.289       .  A
C525        O527   1.275       .  A
C525        C725   1.517       .  S
C526       C1010   1.515       .  S
C528        C629   1.488       .  S
C529        C530   1.401       .  A
C529        C534   1.400       .  A
C529        H536   1.085       .  S
C530        C531   1.412       .  A
C531        C532   1.402       .  A
C531        C538   1.509       .  S
C532        C533   1.407       .  A
C532        H537   1.084       .  S
C533        C534   1.413       .  A
C534        C535   1.503       .  S
C535        H539   1.109       .  S
C535        H540   1.111       .  S
C535        H541   1.110       .  S
C538        H542   1.110       .  S
C538        H543   1.110       .  S
C538        H544   1.111       .  S
C545        C546   1.404       .  A
C545        C550   1.409       .  A
C545        H552   1.083       .  S
C546        C547   1.431       .  A
C547        C548   1.404       .  A
C547        C554   1.509       .  S
C548        C549   1.391       .  A
C548        H553   1.084       .  S
C549        C550   1.418       .  A
C550        C551   1.510       .  S
C551        H555   1.111       .  S
C551        H556   1.105   1_556  S
C551        H557   1.109       .  S
C554        H558   1.109       .  S
C554        H559   1.110       .  S
C554        H560   1.111       .  S
C561        C562   1.408       .  A
C561        C566   1.402       .  A
C561        H568   1.084       .  S
C562        C563   1.405       .  A
C563        C564   1.401       .  A
C563        C570   1.506       .  S
C564        C565   1.411       .  A
C564        H569   1.086       .  S
C565        C566   1.403       .  A
C566        C567   1.505       .  S
C567        H571   1.111       .  S
C567        H572   1.110       .  S
C567        H573   1.110       .  S
C570        H574   1.110       .  S
C570        H575   1.110       .  S
C570        H576   1.111       .  S
C577        C578   1.394       .  A
C577        C582   1.380       .  A
C577        H584   1.062       .  S
C578        C579   1.400       .  A
C579        C580   1.405       .  A
C579        C586   1.508       .  S
C580        C581   1.413       .  A
C580        H585   1.083       .  S
C581        C582   1.388       .  A
C582        C583   1.510       .  S
C583        H587   1.109       .  S
C583        H588   1.110       .  S
C583        H589   1.108       .  S
C586        H590   1.104       .  S
C586        H591   1.102       .  S
C586        H592   1.111       .  S
C593        C594   1.416       .  A
C593        C598   1.436       .  A
C593        H600   1.083       .  S
C594        C595   1.422       .  A
C595        C596   1.417       .  A
C595        C602   1.509       .  S
C596        C597   1.414       .  A
C596        H601   1.083       .  S
C597        C598   1.426       .  A
C598        C599   1.503       .  S
C599        H603   1.111       .  S
C599        H604   1.110       .  S
C599        H605   1.110       .  S
C602        H606   1.104       .  S
C602        H607   1.108       .  S
C602        H608   1.111       .  S
C609        C610   1.406       .  A
C609        C614   1.429       .  A
C609        H616   1.084       .  S
C610        C611   1.426       .  A
C611        C612   1.433       .  A
C611        C618   1.506       .  S
C612        C613   1.414       .  A
C612        H617   1.081       .  S
C613        C614   1.439       .  A
C614        C615   1.508       .  S
C615        H619   1.110       .  S
C615        H620   1.109       .  S
C615        H621   1.107       .  S
C618        H622   1.109       .  S
C618        H623   1.110       .  S
C618        H624   1.110       .  S
C625        C626   1.399       .  A
C625        C630   1.396       .  A
C625        H632   1.078       .  S
C626        C627   1.416       .  A
C627        C628   1.406       .  A
C627        C634   1.505       .  S
C628        C629   1.412       .  A
C628        H633   1.084       .  S
C629        C630   1.414       .  A
C630        C631   1.501       .  S
C631        H635   1.110       .  S
C631        H636   1.106       .  S
C631        H637   1.105       .  S
C634        H638   1.109       .  S
C634        H639   1.109       .  S
C634        H640   1.108       .  S
C641        C642   1.412       .  A
C641        C646   1.407       .  A
C641        H648   1.085       .  S
C642        C643   1.399       .  A
C643        C644   1.398       .  A
C643        C650   1.501       .  S
C644        C645   1.415       .  A
C644        H649   1.084       .  S
C645        C646   1.411       .  A
C646        C647   1.503       .  S
C647        H651   1.108       .  S
C647        H652   1.107       .  S
C647        H653   1.110       .  S
C650        H654   1.110       .  S
C650        H655   1.111       .  S
C650        H656   1.110       .  S
C657        C658   1.423       .  A
C657        C662   1.446       .  A
C657        H664   1.083       .  S
C658        C659   1.432       .  A
C659        C660   1.410       .  A
C659        C666   1.508       .  S
C660        C661   1.411       .  A
C660        H665   1.083       .  S
C661        C662   1.428       .  A
C662        C663   1.502       .  S
C663        H667   1.111       .  S
C663        H668   1.110       .  S
C663        H669   1.110       .  S
C666        H670   1.093       .  S
C666        H671   1.109       .  S
C666        H672   1.110       .  S
C673        C674   1.400       .  A
C673        C678   1.403       .  A
C673        H680   1.084       .  S
C674        C675   1.406       .  A
C675        C676   1.392       .  A
C675        C682   1.510       .  S
C676        C677   1.409       .  A
C676        H681   1.083       .  S
C677        C678   1.417       .  A
C678        C679   1.502       .  S
C679        H683   1.108       .  S
C679        H684   1.105       .  S
C679        H685   1.110       .  S
C682        H686   1.110       .  S
C682        H687   1.108       .  S
C682        H688   1.109       .  S
C689        C690   1.414       .  A
C689        C694   1.401       .  A
C689        H696   1.085       .  S
C690        C691   1.408       .  A
C691        C692   1.401       .  A
C691        C698   1.503       .  S
C692        C693   1.406       .  A
C692        H697   1.085       .  S
C693        C694   1.404       .  A
C694        C695   1.508       .  S
C695        H699   1.110       .  S
C695        H700   1.111       .  S
C695        H701   1.110       .  S
C698        H702   1.109       .  S
C698        H703   1.111       .  S
C698        H704   1.110       .  S
C705        C706   1.404       .  A
C705        C710   1.405       .  A
C705        H712   1.084       .  S
C706        C707   1.408       .  A
C707        C708   1.398       .  A
C707        C714   1.508       .  S
C708        C709   1.410       .  A
C708        H713   1.085       .  S
C709        C710   1.414       .  A
C710        C711   1.507       .  S
C711        H715   1.111       .  S
C711        H716   1.110       .  S
C711        H717   1.108       .  S
C714        H718   1.108       .  S
C714        H719   1.108       .  S
C714        H720   1.110       .  S
C721        C722   1.420       .  A
C721        C726   1.412   1_455  A
C721        H728   1.085       .  S
C722        C723   1.405   1_455  A
C723        C724   1.413       .  A
C723        C730   1.505   1_655  S
C724        C725   1.424       .  A
C724        H729   1.075       .  S
C725        C726   1.412       .  A
C726        C727   1.506       .  S
C727        H731   1.111   1_655  S
C727        H732   1.110       .  S
C727        H733   1.107       .  S
C730        H734   1.111   1_455  S
C730        H735   1.107       .  S
C730        H736   1.110   1_455  S
C737        C738   1.399       .  A
C737        C742   1.404       .  A
C737        H744   1.084       .  S
C738        C739   1.428       .  A
C739        C740   1.422       .  A
C739        C746   1.505       .  S
C740        C741   1.401       .  A
C740        H745   1.084       .  S
C741        C742   1.428       .  A
C742        C743   1.511       .  S
C743        H747   1.110       .  S
C743        H748   1.107       .  S
C743        H749   1.110       .  S
C746        H750   1.109       .  S
C746        H751   1.110       .  S
C746        H752   1.110       .  S
C753        C754   1.402       .  A
C753        C758   1.401       .  A
C753        H760   1.084       .  S
C754        C755   1.404       .  A
C755        C756   1.397       .  A
C755        C762   1.503       .  S
C756        C757   1.408       .  A
C756        H761   1.085       .  S
C757        C758   1.410       .  A
C758        C759   1.507       .  S
C759        H763   1.107       .  S
C759        H764   1.111       .  S
C759        H765   1.110       .  S
C762        H766   1.109       .  S
C762        H767   1.110       .  S
C762        H768   1.111       .  S
C769        C770   1.400   1_565  A
C769        C774   1.416       .  A
C769        H776   1.084       .  S
C770        C771   1.422       .  A
C771        C772   1.423   1_545  A
C771        C778   1.492       .  S
C772        C773   1.404       .  A
C772        H777   1.079       .  S
C773        C774   1.436       .  A
C774        C775   1.507       .  S
C775        H779   1.111       .  S
C775        H780   1.106       .  S
C775        H781   1.110       .  S
C778        H782   1.110       .  S
C778        H783   1.103       .  S
C778        H784   1.103       .  S
C785        C786   1.393       .  A
C785        C790   1.403       .  A
C785        H792   1.084       .  S
C786        C787   1.411       .  A
C787        C788   1.403       .  A
C787        C794   1.504       .  S
C788        C789   1.402       .  A
C788        H793   1.084       .  S
C789        C790   1.426       .  A
C790        C791   1.504       .  S
C791        H795   1.111       .  S
C791        H796   1.103       .  S
C791        H797   1.110       .  S
C794        H798   1.108       .  S
C794        H799   1.110   1_556  S
C794        H800   1.105       .  S
C801        C802   1.399       .  A
C801        C806   1.401       .  A
C801        H808   1.084       .  S
C802        C803   1.418       .  A
C803        C804   1.403       .  A
C803        C810   1.509       .  S
C804        C805   1.403       .  A
C804        H809   1.084       .  S
C805        C806   1.418       .  A
C806        C807   1.507       .  S
C807        H811   1.111       .  S
C807        H812   1.111       .  S
C807        H813   1.110       .  S
C810        H814   1.110       .  S
C810        H815   1.110       .  S
C810        H816   1.111       .  S
C817        C818   1.415       .  A
C817        C822   1.421       .  A
C817        H824   1.070       .  S
C818        C819   1.412   1_455  A
C819        C820   1.412       .  A
C819        C826   1.508       .  S
C820        C821   1.415       .  A
C820        H825   1.079       .  S
C821        C822   1.408   1_655  A
C822        C823   1.504       .  S
C823        H827   1.111       .  S
C823        H828   1.110   1_455  S
C823        H829   1.110       .  S
C826        H830   1.110       .  S
C826        H831   1.110   1_655  S
C826        H832   1.111       .  S
C833        C834   1.385       .  A
C833        C838   1.392       .  A
C833        H840   1.085       .  S
C834        C835   1.415       .  A
C835        C836   1.398       .  A
C835        C842   1.498       .  S
C836        C837   1.392       .  A
C836        H841   1.083       .  S
C837        C838   1.422       .  A
C838        C839   1.497       .  S
C839        H843   1.111       .  S
C839        H844   1.106       .  S
C839        H845   1.097       .  S
C842        H846   1.097       .  S
C842        H847   1.108       .  S
C842        H848   1.111       .  S
C849        C850   1.402       .  A
C849        C854   1.413       .  A
C849        H856   1.080       .  S
C850        C851   1.421       .  A
C851        C852   1.434       .  A
C851        C858   1.503       .  S
C852        C853   1.417       .  A
C852        H857   1.083       .  S
C853        C854   1.429       .  A
C854        C855   1.510       .  S
C855        H859   1.110       .  S
C855        H860   1.111       .  S
C855        H861   1.103       .  S
C858        H862   1.111       .  S
C858        H863   1.110       .  S
C858        H864   1.109       .  S
C865        C866   1.422       .  A
C865        C870   1.405       .  A
C865        H872   1.084       .  S
C866        C867   1.406       .  A
C867        C868   1.421       .  A
C867        C874   1.503       .  S
C868        C869   1.426       .  A
C868        H873   1.083       .  S
C869        C870   1.409       .  A
C870        C871   1.508       .  S
C871        H875   1.111       .  S
C871        H876   1.110       .  S
C871        H877   1.106       .  S
C874        H878   1.111       .  S
C874        H879   1.110       .  S
C874        H880   1.109       .  S
C881        C882   1.421       .  A
C881        C886   1.444       .  A
C881        H888   1.083       .  S
C882        C883   1.433       .  A
C883        C884   1.434       .  A
C883        C890   1.503       .  S
C884        C885   1.410       .  A
C884        H889   1.084       .  S
C885        C886   1.427       .  A
C886        C887   1.502       .  S
C887        H891   1.111       .  S
C887        H892   1.108       .  S
C887        H893   1.110       .  S
C890        H894   1.107       .  S
C890        H895   1.109       .  S
C890        H896   1.095       .  S
C897        C898   1.396       .  A
C897        C902   1.400       .  A
C897        H904   1.085       .  S
C898        C899   1.405       .  A
C899        C900   1.397       .  A
C899        C906   1.500       .  S
C900        C901   1.407       .  A
C900        H905   1.084       .  S
C901        C902   1.435       .  A
C902        C903   1.511       .  S
C903        H907   1.109       .  S
C903        H908   1.110       .  S
C903        H909   1.098       .  S
C906        H910   1.109       .  S
C906        H911   1.110       .  S
C906        H912   1.103       .  S
C913        C914   1.395       .  A
C913        C918   1.394       .  A
C913        H920   1.085       .  S
C914        C915   1.419       .  A
C915        C916   1.402       .  A
C915        C922   1.507       .  S
C916        C917   1.395       .  A
C916        H921   1.084       .  S
C917        C918   1.416       .  A
C918        C919   1.504       .  S
C919        H923   1.111       .  S
C919        H924   1.108       .  S
C919        H925   1.110       .  S
C922        H926   1.106       .  S
C922        H927   1.110       .  S
C922        H928   1.111       .  S
C929        C930   1.400       .  A
C929        C934   1.416   1_545  A
C929        H936   1.084       .  S
C930        C931   1.451       .  A
C931        C932   1.407       .  A
C931        C938   1.510       .  S
C932        C933   1.384   1_545  A
C932        H937   1.085   1_545  S
C933        C934   1.433       .  A
C934        C935   1.507       .  S
C935        H939   1.110       .  S
C935        H940   1.110       .  S
C935        H941   1.109       .  S
C938        H942   1.111       .  S
C938        H943   1.099       .  S
C938        H944   1.111       .  S
C945        C946   1.416       .  A
C945        C950   1.434       .  A
C945        H952   1.083       .  S
C946        C947   1.433       .  A
C947        C948   1.415       .  A
C947        C954   1.511       .  S
C948        C949   1.403       .  A
C948        H953   1.081       .  S
C949        C950   1.423       .  A
C950        C951   1.503       .  S
C951        H955   1.111       .  S
C951        H956   1.111       .  S
C951        H957   1.110       .  S
C954        H958   1.109       .  S
C954        H959   1.110       .  S
C954        H960   1.111       .  S
C961        C962   1.411       .  A
C961        C966   1.400       .  A
C961        H968   1.084       .  S
C962        C963   1.420       .  A
C963        C964   1.402       .  A
C963        C970   1.502       .  S
C964        C965   1.397       .  A
C964        H969   1.084       .  S
C965        C966   1.407       .  A
C966        C967   1.506       .  S
C967        H971   1.111       .  S
C967        H972   1.107       .  S
C967        H973   1.109       .  S
C970        H974   1.111       .  S
C970        H975   1.100       .  S
C970        H976   1.108       .  S
C977        C978   1.401       .  A
C977        C982   1.399       .  A
C977        H984   1.082       .  S
C978        C979   1.416       .  A
C979        C980   1.404       .  A
C979        C986   1.508       .  S
C980        C981   1.401       .  A
C980        H985   1.085       .  S
C981        C982   1.411       .  A
C982        C983   1.505       .  S
C983        H987   1.108       .  S
C983        H988   1.111       .  S
C983        H989   1.111       .  S
C986        H990   1.111       .  S
C986        H991   1.110       .  S
C986        H992   1.111       .  S
C993        C994   1.401       .  A
C993        C998   1.401       .  A
C993       H1000   1.084       .  S
C994        C995   1.431       .  A
C995        C996   1.406       .  A
C995       C1002   1.509       .  S
C996        C997   1.394       .  A
C996       H1001   1.084       .  S
C997        C998   1.416       .  A
C998        C999   1.493       .  S
C999       H1003   1.107       .  S
C999       H1004   1.111       .  S
C999       H1005   1.108       .  S
C1002      H1006   1.107       .  S
C1002      H1007   1.110       .  S
C1002      H1008   1.111       .  S
C1009      C1010   1.414       .  A
C1009      C1014   1.413   1_556  A
C1009      H1016   1.083       .  S
C1010      C1011   1.422       .  A
C1011      C1012   1.414   1_556  A
C1011      C1018   1.508       .  S
C1012      C1013   1.411       .  A
C1012      H1017   1.084       .  S
C1013      C1014   1.414       .  A
C1014      C1015   1.502       .  S
C1015      H1019   1.111       .  S
C1015      H1020   1.103       .  S
C1015      H1021   1.110       .  S
C1018      H1022   1.109       .  S
C1018      H1023   1.110       .  S
C1018      H1024   1.111       .  S
C1025      C1026   1.402       .  A
C1025      C1030   1.403   1_554  A
C1025      H1032   1.085       .  S
C1026      C1027   1.413       .  A
C1027      C1028   1.407   1_554  A
C1027      C1034   1.503       .  S
C1028      C1029   1.403       .  A
C1028      H1033   1.084       .  S
C1029      C1030   1.414       .  A
C1030      C1031   1.505       .  S
C1031      H1035   1.110       .  S
C1031      H1036   1.110       .  S
C1031      H1037   1.109       .  S
C1034      H1038   1.109       .  S
C1034      H1039   1.110       .  S
C1034      H1040   1.111       .  S
C1041      C1042   1.405       .  A
C1041      C1046   1.403       .  A
C1041      H1048   1.084       .  S
C1042      C1043   1.411       .  A
C1043      C1044   1.399       .  A
C1043      C1050   1.508       .  S
C1044      C1045   1.406       .  A
C1044      H1049   1.085       .  S
C1045      C1046   1.408       .  A
C1046      C1047   1.506       .  S
C1047      H1051   1.111       .  S
C1047      H1052   1.110       .  S
C1047      H1053   1.110       .  S
C1050      H1054   1.108       .  S
C1050      H1055   1.109       .  S
C1050      H1056   1.111       .  S
C1057      C1058   1.404       .  A
C1057      C1062   1.410   1_556  A
C1057      H1064   1.084       .  S
C1058      C1059   1.417   1_556  A
C1059      C1060   1.414       .  A
C1059      C1066   1.507   1_554  S
C1060      C1061   1.413       .  A
C1060      H1065   1.084       .  S
C1061      C1062   1.424       .  A
C1062      C1063   1.507       .  S
C1063      H1067   1.111       .  S
C1063      H1068   1.107       .  S
C1063      H1069   1.110       .  S
C1066      H1070   1.108       .  S
C1066      H1071   1.110       .  S
C1066      H1072   1.111   1_556  S
C1073      C1074   1.409       .  A
C1073      C1078   1.404       .  A
C1073      H1080   1.075       .  S
C1074      C1075   1.395       .  A
C1075      C1076   1.398       .  A
C1075      C1082   1.501       .  S
C1076      C1077   1.419       .  A
C1076      H1081   1.084       .  S
C1077      C1078   1.411       .  A
C1078      C1079   1.506       .  S
C1079      H1083   1.106       .  S
C1079      H1084   1.109       .  S
C1079      H1085   1.110       .  S
C1082      H1086   1.107       .  S
C1082      H1087   1.111       .  S
C1082      H1088   1.110       .  S
C1089      C1090   1.408       .  A
C1089      C1094   1.400       .  A
C1089      H1096   1.084       .  S
C1090      C1091   1.407       .  A
C1091      C1092   1.394       .  A
C1091      C1098   1.505       .  S
C1092      C1093   1.408       .  A
C1092      H1097   1.085       .  S
C1093      C1094   1.405       .  A
C1094      C1095   1.504       .  S
C1095      H1099   1.111       .  S
C1095      H1100   1.109       .  S
C1095      H1101   1.110       .  S
C1098      H1102   1.110       .  S
C1098      H1103   1.108       .  S
C1098      H1104   1.110       .  S
C1105      C1106   1.403       .  A
C1105      C1110   1.397       .  A
C1105      H1112   1.084       .  S
C1106      C1107   1.407       .  A
C1107      C1108   1.402       .  A
C1107      C1114   1.505       .  S
C1108      C1109   1.408       .  A
C1108      H1113   1.084       .  S
C1109      C1110   1.412       .  A
C1110      C1111   1.507       .  S
C1111      H1115   1.111       .  S
C1111      H1116   1.110       .  S
C1111      H1117   1.110       .  S
C1114      H1118   1.109       .  S
C1114      H1119   1.110       .  S
C1114      H1120   1.111       .  S
C1121      C1122   1.372       .  A
C1121      C1126   1.383       .  A
C1121      H1128   1.086       .  S
C1122      C1123   1.420       .  A
C1123      C1124   1.393       .  A
C1123      C1130   1.481       .  S
C1124      C1125   1.382       .  A
C1124      H1129   1.085       .  S
C1125      C1126   1.424       .  A
C1126      C1127   1.477       .  S
C1127      H1131   1.108       .  S
C1127      H1132   1.110       .  S
C1127      H1133   1.094       .  S
C1130      H1134   1.088       .  S
C1130      H1135   1.111       .  S
C1130      H1136   1.106       .  S
C1137      C1138   1.419       .  A
C1137      C1142   1.444       .  A
C1137      H1144   1.083       .  S
C1138      C1139   1.434       .  A
C1139      C1140   1.429       .  A
C1139      C1146   1.509       .  S
C1140      C1141   1.411       .  A
C1140      H1145   1.084       .  S
C1141      C1142   1.429       .  A
C1142      C1143   1.503       .  S
C1143      H1147   1.111       .  S
C1143      H1148   1.110       .  S
C1143      H1149   1.110       .  S
C1146      H1150   1.109       .  S
C1146      H1151   1.109       .  S
C1146      H1152   1.110       .  S
C1153      C1154   1.414       .  A
C1153      C1158   1.414       .  A
C1153      H1160   1.084       .  S
C1154      C1155   1.417       .  A
C1155      C1156   1.421       .  A
C1155      C1162   1.505       .  S
C1156      C1157   1.418       .  A
C1156      H1161   1.083       .  S
C1157      C1158   1.422       .  A
C1158      C1159   1.508       .  S
C1159      H1163   1.111       .  S
C1159      H1164   1.110       .  S
C1159      H1165   1.110       .  S
C1162      H1166   1.109       .  S
C1162      H1167   1.110       .  S
C1162      H1168   1.111       .  S
C1169      C1170   1.407       .  A
C1169      C1174   1.390       .  A
C1169      H1176   1.083       .  S
C1170      C1171   1.405       .  A
C1171      C1172   1.384       .  A
C1171      C1178   1.508       .  S
C1172      C1173   1.402       .  A
C1172      H1177   1.077       .  S
C1173      C1174   1.409       .  A
C1174      C1175   1.510       .  S
C1175      H1179   1.111       .  S
C1175      H1180   1.109       .  S
C1175      H1181   1.108       .  S
C1178      H1182   1.107       .  S
C1178      H1183   1.110       .  S
C1178      H1184   1.111       .  S
C1185      C1186   1.416       .  A
C1185      C1190   1.440       .  A
C1185      H1192   1.083       .  S
C1186      C1187   1.436       .  A
C1187      C1188   1.437       .  A
C1187      C1194   1.505       .  S
C1188      C1189   1.410       .  A
C1188      H1193   1.080       .  S
C1189      C1190   1.430       .  A
C1190      C1191   1.504       .  S
C1191      H1195   1.109       .  S
C1191      H1196   1.110       .  S
C1191      H1197   1.110       .  S
C1194      H1198   1.107       .  S
C1194      H1199   1.109       .  S
C1194      H1200   1.111       .  S
C1201      C1202   1.405       .  A
C1201      C1206   1.392       .  A
C1201      H1208   1.085       .  S
C1202      C1203   1.405       .  A
C1203      C1204   1.400       .  A
C1203      C1210   1.505       .  S
C1204      C1205   1.412       .  A
C1204      H1209   1.084       .  S
C1205      C1206   1.412       .  A
C1206      C1207   1.505       .  S
C1207      H1211   1.110       .  S
C1207      H1212   1.110       .  S
C1207      H1213   1.109       .  S
C1210      H1214   1.109       .  S
C1210      H1215   1.110       .  S
C1210      H1216   1.111       .  S
C1217      C1218   1.402       .  A
C1217      C1222   1.415       .  A
C1217      H1224   1.084       .  S
C1218      C1219   1.430       .  A
C1219      C1220   1.415       .  A
C1219      C1226   1.510       .  S
C1220      C1221   1.405       .  A
C1220      H1225   1.084       .  S
C1221      C1222   1.431       .  A
C1222      C1223   1.509       .  S
C1223      H1227   1.111       .  S
C1223      H1228   1.111       .  S
C1223      H1229   1.109       .  S
C1226      H1230   1.110       .  S
C1226      H1231   1.109       .  S
C1226      H1232   1.111       .  S
C1233      C1234   1.420       .  A
C1233      C1238   1.444       .  A
C1233      H1240   1.083       .  S
C1234      C1235   1.433       .  A
C1235      C1236   1.421       .  A
C1235      C1242   1.509       .  S
C1236      C1237   1.411       .  A
C1236      H1241   1.084       .  S
C1237      C1238   1.429       .  A
C1238      C1239   1.503       .  S
C1239      H1243   1.110       .  S
C1239      H1244   1.109       .  S
C1239      H1245   1.110       .  S
C1242      H1246   1.110       .  S
C1242      H1247   1.109       .  S
C1242      H1248   1.099       .  S
C1249      C1250   1.410       .  A
C1249      C1254   1.397       .  A
C1249      H1256   1.084       .  S
C1250      C1251   1.409       .  A
C1251      C1252   1.396       .  A
C1251      C1258   1.495       .  S
C1252      C1253   1.395       .  A
C1252      H1257   1.078       .  S
C1253      C1254   1.412       .  A
C1254      C1255   1.505       .  S
C1255      H1259   1.108       .  S
C1255      H1260   1.110       .  S
C1255      H1261   1.111       .  S
C1258      H1262   1.102       .  S
C1258      H1263   1.105       .  S
C1258      H1264   1.103       .  S
C1265      C1266   1.407       .  A
C1265      C1270   1.404       .  A
C1265      H1272   1.085       .  S
C1266      C1267   1.411       .  A
C1267      C1268   1.400       .  A
C1267      C1274   1.505       .  S
C1268      C1269   1.401       .  A
C1268      H1273   1.085       .  S
C1269      C1270   1.409       .  A
C1270      C1271   1.503       .  S
C1271      H1275   1.107       .  S
C1271      H1276   1.109       .  S
C1271      H1277   1.110       .  S
C1274      H1278   1.111       .  S
C1274      H1279   1.109       .  S
C1274      H1280   1.110       .  S
C1281      C1282   1.414       .  A
C1281      C1286   1.399       .  A
C1281      H1288   1.084       .  S
C1282      C1283   1.412       .  A
C1283      C1284   1.403       .  A
C1283      C1290   1.506       .  S
C1284      C1285   1.408       .  A
C1284      H1289   1.084       .  S
C1285      C1286   1.400       .  A
C1286      C1287   1.505       .  S
C1287      H1291   1.111       .  S
C1287      H1292   1.109       .  S
C1287      H1293   1.110       .  S
C1290      H1294   1.109       .  S
C1290      H1295   1.110       .  S
C1290      H1296   1.109       .  S
C1297      C1298   1.405       .  A
C1297      C1302   1.406       .  A
C1297      H1304   1.084       .  S
C1298      C1299   1.410       .  A
C1299      C1300   1.408       .  A
C1299      C1306   1.503       .  S
C1300      C1301   1.407       .  A
C1300      H1305   1.084       .  S
C1301      C1302   1.413       .  A
C1302      C1303   1.508       .  S
C1303      H1307   1.111       .  S
C1303      H1308   1.108       .  S
C1303      H1309   1.111       .  S
C1306      H1310   1.105       .  S
C1306      H1311   1.110       .  S
C1306      H1312   1.111       .  S
C1313      C1314   1.398       .  A
C1313      C1318   1.416       .  A
C1313      H1320   1.084       .  S
C1314      C1315   1.436       .  A
C1315      C1316   1.408       .  A
C1315      C1322   1.508       .  S
C1316      C1317   1.393       .  A
C1316      H1321   1.085       .  S
C1317      C1318   1.431       .  A
C1318      C1319   1.507   1_455  S
C1319      H1323   1.111       .  S
C1319      H1324   1.106       .  S
C1319      H1325   1.107       .  S
C1322      H1326   1.098       .  S
C1322      H1327   1.111       .  S
C1322      H1328   1.111       .  S
C1329      C1330   1.409       .  A
C1329      C1334   1.420       .  A
C1329      H1336   1.084       .  S
C1330      C1331   1.420       .  A
C1331      C1332   1.412       .  A
C1331      C1338   1.509       .  S
C1332      C1333   1.408       .  A
C1332      H1337   1.084       .  S
C1333      C1334   1.422       .  A
C1334      C1335   1.506       .  S
C1335      H1339   1.111       .  S
C1335      H1340   1.110       .  S
C1335      H1341   1.110       .  S
C1338      H1342   1.110       .  S
C1338      H1343   1.108       .  S
C1338      H1344   1.111       .  S
C1345      C1346   1.419       .  A
C1345      C1350   1.417       .  A
C1345      H1352   1.077       .  S
C1346      C1347   1.405       .  A
C1347      C1348   1.403       .  A
C1347      C1354   1.507       .  S
C1348      C1349   1.413       .  A
C1348      H1353   1.082       .  S
C1349      C1350   1.407       .  A
C1350      C1351   1.504       .  S
C1351      H1355   1.111       .  S
C1351      H1356   1.110       .  S
C1351      H1357   1.110       .  S
C1354      H1358   1.110       .  S
C1354      H1359   1.110       .  S
C1354      H1360   1.111       .  S
C1361      C1362   1.399       .  A
C1361      C1366   1.401       .  A
C1361      H1368   1.084       .  S
C1362      C1363   1.429       .  A
C1363      C1364   1.405       .  A
C1363      C1370   1.509       .  S
C1364      C1365   1.395       .  A
C1364      H1369   1.084       .  S
C1365      C1366   1.414       .  A
C1366      C1367   1.500       .  S
C1367      H1371   1.109       .  S
C1367      H1372   1.110       .  S
C1367      H1373   1.109       .  S
C1370      H1374   1.110       .  S
C1370      H1375   1.106       .  S
C1370      H1376   1.111       .  S
C1377      C1378   1.408       .  A
C1377      C1382   1.420       .  A
C1377      H1384   1.083       .  S
C1378      C1379   1.431       .  A
C1379      C1380   1.409       .  A
C1379      C1386   1.512       .  S
C1380      C1381   1.407       .  A
C1380      H1385   1.083       .  S
C1381      C1382   1.428       .  A
C1382      C1383   1.507       .  S
C1383      H1387   1.111       .  S
C1383      H1388   1.110       .  S
C1383      H1389   1.110       .  S
C1386      H1390   1.110       .  S
C1386      H1391   1.110       .  S
C1386      H1392   1.111       .  S
C1393      C1394   1.388   1_545  A
C1393      C1398   1.411       .  A
C1393      H1400   1.086       .  S
C1394      C1395   1.432       .  A
C1395      C1396   1.426   1_565  A
C1395      C1402   1.488       .  S
C1396      C1397   1.401       .  A
C1396      H1401   1.082       .  S
C1397      C1398   1.457       .  A
C1398      C1399   1.516       .  S
C1399      H1403   1.111       .  S
C1399      H1404   1.099       .  S
C1399      H1405   1.107       .  S
C1402      H1406   1.097       .  S
C1402      H1407   1.106       .  S
C1402      H1408   1.111       .  S
C1409      C1410   1.398       .  A
C1409      C1414   1.399       .  A
C1409      H1416   1.084       .  S
C1410      C1411   1.408       .  A
C1411      C1412   1.389       .  A
C1411      C1418   1.510       .  S
C1412      C1413   1.404       .  A
C1412      H1417   1.084       .  S
C1413      C1414   1.418       .  A
C1414      C1415   1.507       .  S
C1415      H1419   1.111       .  S
C1415      H1420   1.110       .  S
C1415      H1421   1.109       .  S
C1418      H1422   1.110       .  S
C1418      H1423   1.111       .  S
C1418      H1424   1.107       .  S
C1425      C1426   1.412       .  A
C1425      C1430   1.407       .  A
C1425      H1432   1.085       .  S
C1426      C1427   1.399       .  A
C1427      C1428   1.397       .  A
C1427      C1434   1.501       .  S
C1428      C1429   1.414       .  A
C1428      H1433   1.085       .  S
C1429      C1430   1.413       .  A
C1430      C1431   1.505       .  S
C1431      H1435   1.109       .  S
C1431      H1436   1.108       .  S
C1431      H1437   1.111       .  S
C1434      H1438   1.111       .  S
C1434      H1439   1.110       .  S
C1434      H1440   1.110       .  S
C1441      C1442   1.409       .  A
C1441      C1446   1.414       .  A
C1441      H1448   1.084       .  S
C1442      C1443   1.416       .  A
C1443      C1444   1.409       .  A
C1443      C1450   1.506       .  S
C1444      C1445   1.412   1_554  A
C1444      H1449   1.083   1_554  S
C1445      C1446   1.423   1_556  A
C1446      C1447   1.508   1_554  S
C1447      H1451   1.111   1_556  S
C1447      H1452   1.110       .  S
C1447      H1453   1.111       .  S
C1450      H1454   1.108       .  S
C1450      H1455   1.110       .  S
C1450      H1456   1.111       .  S
C1457      C1458   1.388       .  A
C1457      C1462   1.406       .  A
C1457      H1464   1.085       .  S
C1458      C1459   1.423       .  A
C1459      C1460   1.425       .  A
C1459      C1466   1.506       .  S
C1460      C1461   1.409   1_455  A
C1460      H1465   1.083       .  S
C1461      C1462   1.445   1_655  A
C1462      C1463   1.517   1_455  S
C1463      H1467   1.111       .  S
C1463      H1468   1.096       .  S
C1463      H1469   1.107       .  S
C1466      H1470   1.111       .  S
C1466      H1471   1.109       .  S
C1466      H1472   1.111       .  S
C1473      C1474   1.398       .  A
C1473      C1478   1.381       .  A
C1473      H1480   1.081       .  S
C1474      C1475   1.415       .  A
C1475      C1476   1.398       .  A
C1475      C1482   1.508       .  S
C1476      C1477   1.406       .  A
C1476      H1481   1.084       .  S
C1477      C1478   1.412       .  A
C1478      C1479   1.505       .  S
C1479      H1483   1.108       .  S
C1479      H1484   1.105       .  S
C1479      H1485   1.108       .  S
C1482      H1486   1.108       .  S
C1482      H1487   1.105       .  S
C1482      H1488   1.110       .  S
C1489      C1490   1.426       .  A
C1489      C1494   1.446       .  A
C1489      H1496   1.082       .  S
C1490      C1491   1.432       .  A
C1491      C1492   1.419       .  A
C1491      C1498   1.510       .  S
C1492      C1493   1.412       .  A
C1492      H1497   1.083       .  S
C1493      C1494   1.429       .  A
C1494      C1495   1.502       .  S
C1495      H1499   1.110       .  S
C1495      H1500   1.108       .  S
C1495      H1501   1.111       .  S
C1498      H1502   1.111       .  S
C1498      H1503   1.107       .  S
C1498      H1504   1.111       .  S
C1505      C1506   1.416       .  A
C1505      C1510   1.415       .  A
C1505      H1512   1.084       .  S
C1506      C1507   1.412       .  A
C1507      C1508   1.411       .  A
C1507      C1514   1.507   1_556  S
C1508      C1509   1.419       .  A
C1508      H1513   1.083       .  S
C1509      C1510   1.418       .  A
C1510      C1511   1.507       .  S
C1511      H1515   1.111       .  S
C1511      H1516   1.110       .  S
C1511      H1517   1.110       .  S
C1514      H1518   1.110       .  S
C1514      H1519   1.110       .  S
C1514      H1520   1.111   1_554  S
C1521      C1522   1.398       .  A
C1521      C1526   1.410       .  A
C1521      H1528   1.084       .  S
C1522      C1523   1.432       .  A
C1523      C1524   1.421       .  A
C1523      C1530   1.498       .  S
C1524      C1525   1.400       .  A
C1524      H1529   1.084       .  S
C1525      C1526   1.439       .  A
C1526      C1527   1.513       .  S
C1527      H1531   1.111       .  S
C1527      H1532   1.106       .  S
C1527      H1533   1.110       .  S
C1530      H1534   1.104       .  S
C1530      H1535   1.104       .  S
C1530      H1536   1.111       .  S
C1537      C1538   1.409       .  A
C1537      C1542   1.437       .  A
C1537      H1544   1.083       .  S
C1538      C1539   1.432       .  A
C1539      C1540   1.449       .  A
C1539      C1546   1.504       .  S
C1540      C1541   1.420       .  A
C1540      H1545   1.082       .  S
C1541      C1542   1.429       .  A
C1542      C1543   1.504       .  S
C1543      H1547   1.106       .  S
C1543      H1548   1.110       .  S
C1543      H1549   1.109       .  S
C1546      H1550   1.110       .  S
C1546      H1551   1.110       .  S
C1546      H1552   1.109       .  S
C1553      C1554   1.403       .  A
C1553      C1558   1.392       .  A
C1553      H1560   1.084       .  S
C1554      C1555   1.406       .  A
C1555      C1556   1.393       .  A
C1555      C1562   1.507       .  S
C1556      C1557   1.409       .  A
C1556      H1561   1.080       .  S
C1557      C1558   1.423       .  A
C1558      C1559   1.514       .  S
C1559      H1563   1.110       .  S
C1559      H1564   1.099       .  S
C1559      H1565   1.097       .  S
C1562      H1566   1.108       .  S
C1562      H1567   1.109       .  S
C1562      H1568   1.111       .  S
C1569      C1570   1.409       .  A
C1569      C1574   1.403       .  A
C1569      H1576   1.084       .  S
C1570      C1571   1.400       .  A
C1571      C1572   1.399       .  A
C1571      C1578   1.502       .  S
C1572      C1573   1.416       .  A
C1572      H1577   1.084       .  S
C1573      C1574   1.414       .  A
C1574      C1575   1.505       .  S
C1575      H1579   1.111       .  S
C1575      H1580   1.110       .  S
C1575      H1581   1.107       .  S
C1578      H1582   1.110       .  S
C1578      H1583   1.110       .  S
C1578      H1584   1.111       .  S
C1585      C1586   1.405   1_556  A
C1585      C1590   1.405       .  A
C1585      H1592   1.084   1_556  S
C1586      C1587   1.418   1_554  A
C1587      C1588   1.415       .  A
C1587      C1594   1.505   1_556  S
C1588      C1589   1.411       .  A
C1588      H1593   1.083       .  S
C1589      C1590   1.423       .  A
C1590      C1591   1.509       .  S
C1591      H1595   1.109       .  S
C1591      H1596   1.106       .  S
C1591      H1597   1.110       .  S
C1594      H1598   1.107       .  S
C1594      H1599   1.110       .  S
C1594      H1600   1.111   1_554  S
C1601      C1602   1.425       .  A
C1601      C1606   1.408   1_565  A
C1601      H1608   1.080       .  S
C1602      C1603   1.412   1_565  A
C1603      C1604   1.433       .  A
C1603      C1610   1.501       .  S
C1604      C1605   1.423       .  A
C1604      H1609   1.072       .  S
C1605      C1606   1.407       .  A
C1606      C1607   1.509       .  S
C1607      H1611   1.111   1_545  S
C1607      H1612   1.110       .  S
C1607      H1613   1.110       .  S
C1610      H1614   1.110       .  S
C1610      H1615   1.108   1_545  S
C1610      H1616   1.110       .  S
C1617      C1618   1.414       .  A
C1617      C1622   1.420       .  A
C1617      H1624   1.082       .  S
C1618      C1619   1.432       .  A
C1619      C1620   1.451       .  A
C1619      C1626   1.502       .  S
C1620      C1621   1.425       .  A
C1620      H1625   1.083       .  S
C1621      C1622   1.434       .  A
C1622      C1623   1.511       .  S
C1623      H1627   1.111       .  S
C1623      H1628   1.109       .  S
C1623      H1629   1.100       .  S
C1626      H1630   1.111       .  S
C1626      H1631   1.110       .  S
C1626      H1632   1.110       .  S
C1633      C1634   1.381       .  A
C1633      C1638   1.387       .  A
C1633      H1640   1.085       .  S
C1634      C1635   1.422       .  A
C1635      C1636   1.388       .  A
C1635      C1642   1.482       .  S
C1636      C1637   1.381       .  A
C1636      H1641   1.086       .  S
C1637      C1638   1.422       .  A
C1638      C1639   1.489       .  S
C1639      H1643   1.109       .  S
C1639      H1644   1.094       .  S
C1639      H1645   1.103       .  S
C1642      H1646   1.108       .  S
C1642      H1647   1.086       .  S
C1642      H1648   1.110       .  S
C1649      C1650   1.405       .  A
C1649      C1654   1.399       .  A
C1649      H1656   1.085       .  S
C1650      C1651   1.411       .  A
C1651      C1652   1.402       .  A
C1651      C1658   1.506       .  S
C1652      C1653   1.406       .  A
C1652      H1657   1.085       .  S
C1653      C1654   1.407       .  A
C1654      C1655   1.505       .  S
C1655      H1659   1.110       .  S
C1655      H1660   1.111       .  S
C1655      H1661   1.110       .  S
C1658      H1662   1.110       .  S
C1658      H1663   1.109       .  S
C1658      H1664   1.110       .  S
C1665      C1666   1.402       .  A
C1665      C1670   1.393       .  A
C1665      H1672   1.084       .  S
C1666      C1667   1.422       .  A
C1667      C1668   1.398       .  A
C1667      C1674   1.507       .  S
C1668      C1669   1.396       .  A
C1668      H1673   1.084       .  S
C1669      C1670   1.412       .  A
C1670      C1671   1.506       .  S
C1671      H1675   1.111       .  S
C1671      H1676   1.111       .  S
C1671      H1677   1.110       .  S
C1674      H1678   1.110       .  S
C1674      H1679   1.109       .  S
C1674      H1680   1.111       .  S
