geometry optimzed in LAMMPS
_audit_creation_date              2020-12-01 
_audit_creation_method            'lammps2cif' 
_symmetry_space_group_name_H-M    'P1' 
_symmetry_Int_Tables_number       1 
_symmetry_cell_setting            triclinic 
loop_ 
_symmetry_equiv_pos_as_xyz 
  x,y,z 
_cell_length_a                    50.42680872 
_cell_length_b                    50.435951789566836 
_cell_length_c                    27.480674478496137 
_cell_angle_alpha                 90.0152578852295 
_cell_angle_beta                  90.02565193022484 
_cell_angle_gamma                 89.99840401860594 
loop_ 
_atom_site_label 
_atom_site_type_symbol 
_atom_site_fract_x 
_atom_site_fract_y 
_atom_site_fract_z 
_atom_site_charge 
O1          O  0.10372358  0.17538897  0.47990893    -0.86800
O2          O  0.10628210  0.14471053  0.39672075    -0.83800
C3          C  0.09810926  0.12290672  0.41299593     0.96700
O4          O  0.07397368  0.12044050  0.42487650    -0.83900
O5          O  0.02097558  0.14003058  0.44676951    -0.86500
C6          C  0.01883126  0.15170702  0.48751583     1.01200
O7          O  0.03461943  0.16985553  0.49906976    -0.79300
O8          O  0.07395451  0.20554247  0.99836574    -0.79500
C9          C  0.09208174  0.18963748  0.01113061     1.01100
O10         O  0.09516525  0.22074285  0.41913658    -0.86800
O11         O  0.08933174  0.18705289  0.33998438    -0.83900
C12         C  0.07947228  0.16924740  0.31298254     0.96700
O13         O  0.06985968  0.14801328  0.33077589    -0.83900
O14         O  0.02101171  0.16642028  0.35606961    -0.86500
C15         C  0.00584410  0.18371664  0.37400835     1.01200
O16         O  0.01069146  0.19429463  0.41464614    -0.79300
O17         O  0.05316067  0.22708827  0.40678851    -0.79500
C18         C  0.07671460  0.23505766  0.40321905     1.01100
Cr19       Cr  0.09644817  0.18141336  0.40963631     1.93700
Cr20       Cr  0.04785887  0.14560581  0.39239750     1.93200
Cr21       Cr  0.04426622  0.19768159  0.45240034     1.39100
O22         O  0.06252906  0.17464586  0.41824121    -1.24500
O23         O  0.21664561  0.09923619  0.41845200    -0.86800
O24         O  0.18294182  0.09339580  0.33932411    -0.83800
C25         C  0.16512550  0.08354785  0.31233051     0.96700
O26         O  0.14388469  0.07395440  0.33015028    -0.83900
O27         O  0.16236182  0.02512018  0.35538038    -0.86500
C28         C  0.17965315  0.00994713  0.37334877     1.01200
O29         O  0.19019431  0.01477528  0.41403655    -0.79300
O30         O  0.22300275  0.05722393  0.40623586    -0.79500
C31         C  0.23096979  0.08077219  0.40262128     1.01100
O32         O  0.17130506  0.10781402  0.47924861    -0.86800
O33         O  0.14056700  0.11029974  0.39606905    -0.83900
C34         C  0.11882994  0.10214314  0.41269289     0.96700
O35         O  0.11638115  0.07799085  0.42443801    -0.83900
O36         O  0.13597388  0.02500557  0.44607252    -0.86500
C37         C  0.14761284  0.02289728  0.48686090     1.01200
O38         O  0.16572295  0.03872430  0.49844323    -0.79300
O39         O  0.20145350  0.07804276  0.99775018    -0.79500
C40         C  0.18557244  0.09619578  0.01048446     1.01100
Cr41       Cr  0.17730604  0.10051510  0.40896910     1.93700
Cr42       Cr  0.14151972  0.05192372  0.39176444     1.93200
Cr43       Cr  0.19358128  0.04834718  0.45180549     1.39100
O44         O  0.17055928  0.06659990  0.41759908    -1.24500
O45         O  0.10372574  0.34562629  0.02279163    -0.86800
O46         O  0.10621947  0.37637801  0.10594719    -0.83800
C47         C  0.09804784  0.39810379  0.08928455     0.96700
O48         O  0.07388704  0.40053618  0.07753048    -0.83900
O49         O  0.02090555  0.38092258  0.05589391    -0.86500
C50         C  0.01879904  0.36927627  0.01511805     1.01200
O51         O  0.03462677  0.35116679  0.00357125    -0.79300
O52         O  0.07396075  0.31546526  0.50430659    -0.79500
C53         C  0.09210106  0.33135441  0.49156153     1.01100
O54         O  0.09518881  0.30029547  0.08362713    -0.86800
O55         O  0.08933937  0.33400271  0.16271890    -0.83900
C56         C  0.07947152  0.35180806  0.18968991     0.96700
O57         O  0.06988173  0.37304728  0.17184831    -0.83900
O58         O  0.02103540  0.35456186  0.14661503    -0.86500
C59         C  0.00586703  0.33725644  0.12866743     1.01200
O60         O  0.01069662  0.32670555  0.08799722    -0.79300
O61         O  0.05317590  0.29392139  0.09583582    -0.79500
C62         C  0.07673349  0.28596476  0.09945908     1.04300
Cr63       Cr  0.09644783  0.33963374  0.09307538     1.93700
Cr64       Cr  0.04783473  0.37539744  0.11022198     1.93200
Cr65       Cr  0.04426906  0.32332771  0.05023856     1.39100
O66         O  0.06252090  0.34636174  0.08442674    -1.24500
O67         O  0.21664780  0.42177310  0.08282619    -0.86800
O68         O  0.18297123  0.42763676  0.16197999    -0.83800
C69         C  0.16516211  0.43750156  0.18895216     0.96700
O70         O  0.14392094  0.44710574  0.17113071    -0.83900
O71         O  0.16230889  0.99595660  0.14583422    -0.86500
C72         C  0.17962947  0.01110793  0.12793905     1.01200
O73         O  0.19023106  0.00624354  0.08734040    -0.79300
O74         O  0.22301115  0.46376066  0.09521439    -0.79500
C75         C  0.23097446  0.44020671  0.09876713     1.01100
O76         O  0.17127610  0.41323398  0.02204851    -0.86800
O77         O  0.14061922  0.41067354  0.10524764    -0.83900
C78         C  0.11880676  0.41883240  0.08895055     0.96700
O79         O  0.11633375  0.44296060  0.07702480    -0.83900
O80         O  0.13592326  0.49596501  0.05510660    -0.86500
C81         C  0.14762422  0.49812223  0.01440017     1.01200
O82         O  0.16577392  0.48233559  0.00287761    -0.79300
O83         O  0.20143673  0.44299440  0.50360662    -0.79500
C84         C  0.18552290  0.42487406  0.49083253     1.01100
Cr85       Cr  0.17731824  0.42050816  0.09232639     1.93700
Cr86       Cr  0.14150268  0.46909200  0.10949856     1.93200
Cr87       Cr  0.19359863  0.47267560  0.04957678     1.39100
O88         O  0.17055149  0.45442256  0.08370383    -1.24500
O89         O  0.29622368  0.09918062  0.08299552    -0.86800
O90         O  0.32990788  0.09331842  0.16216846    -0.83800
C91         C  0.34771227  0.08345018  0.18916203     0.96700
O92         O  0.36895350  0.07384535  0.17136157    -0.83900
O93         O  0.35053184  0.02500318  0.14602916    -0.86500
C94         C  0.33321634  0.00984758  0.12808553     1.01200
O95         O  0.32262763  0.01470313  0.08745703    -0.79300
O96         O  0.28984909  0.05718913  0.09530255    -0.79500
C97         C  0.28189049  0.08074431  0.09887332     1.01100
O98         O  0.34158692  0.10771005  0.02226388    -0.86800
O99         O  0.37227505  0.11024525  0.10549048    -0.83900
C100        C  0.39406506  0.10208032  0.08911947     0.96700
O101        O  0.39652359  0.07794317  0.07723447    -0.83900
O102        O  0.37691070  0.02495214  0.05533723    -0.86500
C103        C  0.36522353  0.02281185  0.01459510     1.01200
O104        O  0.34708842  0.03861342  0.00305078    -0.79300
O105        O  0.31141802  0.07795531  0.50375666    -0.79500
C106        C  0.32732483  0.09608150  0.49102243     1.01100
Cr107      Cr  0.33555854  0.10043700  0.09253072     1.93700
Cr108      Cr  0.37135226  0.05184193  0.10971978     1.93200
Cr109      Cr  0.31926027  0.04827162  0.04970992     1.39100
O110        O  0.34230859  0.06651990  0.08389267    -1.24500
O111        O  0.40912597  0.17529923  0.02271963    -0.86800
O112        O  0.40664378  0.14456678  0.10585824    -0.83800
C113        C  0.41481803  0.12281794  0.08930291     0.96700
O114        O  0.43897246  0.12037919  0.07752974    -0.83900
O115        O  0.49195697  0.14002018  0.05583461    -0.86500
C116        C  0.49405735  0.15167425  0.01507311     1.01200
O117        O  0.47821438  0.16977379  0.00353039    -0.79300
O118        O  0.43887122  0.20547399  0.50429778    -0.79500
C119        C  0.42073997  0.18957527  0.49151649     1.01100
O120        O  0.41767069  0.22063805  0.08360255    -0.86800
O121        O  0.42353137  0.18693325  0.16266796    -0.83900
C122        C  0.43340156  0.16913115  0.18964178     0.96700
O123        O  0.44302199  0.14790336  0.17180420    -0.83900
O124        O  0.99185012  0.16639994  0.14657260    -0.86500
C125        C  0.00700815  0.18370137  0.12862863     1.01200
O126        O  0.00216410  0.19424058  0.08796243    -0.79300
O127        O  0.45968649  0.22701300  0.09584773    -0.79500
C128        C  0.43612999  0.23496921  0.09946044     1.01100
Cr129      Cr  0.41641637  0.18130093  0.09301375     1.93700
Cr130      Cr  0.46504331  0.14554574  0.11017864     1.93200
Cr131      Cr  0.46857865  0.19761045  0.05022111     1.39100
O132        O  0.45034127  0.17457319  0.08438506    -1.24500
O133        O  0.40913674  0.34555259  0.47991056    -0.86800
O134        O  0.40655931  0.37623533  0.39674512    -0.83800
C135        C  0.41473238  0.39803483  0.41307626     0.96700
O136        O  0.43887292  0.40050455  0.42496226    -0.83900
O137        O  0.49188253  0.38092666  0.44680751    -0.86500
C138        C  0.49402539  0.36925976  0.48755033     1.01200
O139        O  0.47823148  0.35112417  0.49908443    -0.79300
O140        O  0.43892851  0.31541633  0.99836776    -0.79500
C141        C  0.42078764  0.33130430  0.01112974     1.01100
O142        O  0.41769194  0.30020826  0.41911214    -0.86800
O143        O  0.42350957  0.33389227  0.33997562    -0.83900
C144        C  0.43336427  0.35170126  0.31300615     0.96700
O145        O  0.44294756  0.37294685  0.33083306    -0.83900
O146        O  0.99181208  0.35454032  0.35608618    -0.86500
C147        C  0.00699162  0.33724662  0.37401180     1.01200
O148        O  0.00216148  0.32667442  0.41464868    -0.79300
O149        O  0.45969539  0.29386361  0.40679456    -0.79500
C150        C  0.43614095  0.28589042  0.40321855     1.01100
Cr151      Cr  0.41639972  0.33953332  0.40963079     1.93700
Cr152      Cr  0.46497620  0.37535033  0.39244326     1.93200
Cr153      Cr  0.46859730  0.32328255  0.45240874     1.39100
O154        O  0.45031909  0.34630743  0.41825596    -1.24500
O155        O  0.29618964  0.42170004  0.41845894    -0.86800
O156        O  0.32989512  0.42753792  0.33938249    -0.83800
C157        C  0.34771266  0.43738812  0.31243059     0.96700
O158        O  0.36895346  0.44697923  0.33029385    -0.83900
O159        O  0.35048500  0.99582300  0.35552402    -0.86500
C160        C  0.33319236  0.01099800  0.37346981     1.01200
O161        O  0.32263976  0.00616495  0.41412505    -0.79300
O162        O  0.28983433  0.46370990  0.40624713    -0.79500
C163        C  0.28186616  0.44016142  0.40261340     1.01100
O164        O  0.34153067  0.41313075  0.47931973    -0.86800
O165        O  0.37226324  0.41063227  0.39618663    -0.83900
C166        C  0.39400652  0.41879194  0.41281921     0.96700
O167        O  0.39645661  0.44294257  0.42460186    -0.83900
O168        O  0.37686652  0.49592729  0.44626337    -0.86500
C169        C  0.36522338  0.49804049  0.48702890     1.01200
O170        O  0.34710605  0.48222232  0.49856412    -0.79300
O171        O  0.31138329  0.44290493  0.99779021    -0.79500
C172        C  0.32726779  0.42475639  0.01054179     1.01100
Cr173      Cr  0.33552820  0.42042189  0.40903429     1.93700
Cr174      Cr  0.37131874  0.46901206  0.39192203     1.93200
Cr175      Cr  0.31925291  0.47259466  0.45187078     1.39100
O176        O  0.34227690  0.45433837  0.41769560    -1.24500
O177        O  0.15913752  0.09566749  0.22923592    -0.86800
O178        O  0.15666761  0.12640137  0.14608153    -0.83800
C179        C  0.16483447  0.14813156  0.16274098     0.96700
O180        O  0.18899143  0.15056608  0.17452705    -0.83900
O181        O  0.24196757  0.13092801  0.19623215    -0.86500
C182        C  0.24406979  0.11927191  0.23699100     1.01200
O183        O  0.22823605  0.10116583  0.24850769    -0.79300
O184        O  0.18888131  0.06548705  0.24770328    -0.79500
C185        C  0.17074820  0.08138653  0.26045708     1.01100
O186        O  0.16766460  0.05032642  0.16836978    -0.86800
O187        O  0.17353766  0.08402744  0.08931086    -0.83900
C188        C  0.18340917  0.10182870  0.06235451     0.96700
O189        O  0.19302332  0.12305912  0.08020927    -0.83900
O190        O  0.24185715  0.10456495  0.10548893    -0.86500
C191        C  0.25701285  0.08725312  0.12343502     1.01200
O192        O  0.25216642  0.07669916  0.16408261    -0.79300
O193        O  0.20967523  0.04393872  0.15616214    -0.79500
C194        C  0.18611591  0.03598990  0.15252469     1.01100
Cr195      Cr  0.16642398  0.08966376  0.15895062     1.93700
Cr196      Cr  0.21505187  0.12541053  0.14186403     1.93200
Cr197      Cr  0.21858575  0.07333667  0.20180199     1.39100
O198        O  0.20035090  0.09638086  0.16762465    -1.24500
O199        O  0.04621987  0.17176742  0.16909943    -0.86800
O200        O  0.07990057  0.17760090  0.08996573    -0.83800
C201        C  0.09770409  0.18746430  0.06299271     0.96700
O202        O  0.11894667  0.19706624  0.08081391    -0.83900
O203        O  0.10051201  0.24591183  0.10607870    -0.86500
C204        C  0.08321657  0.26108135  0.12402017     1.01200
O205        O  0.07264963  0.25623717  0.16465402    -0.79300
O206        O  0.03985189  0.21376208  0.15678034    -0.79500
C207        C  0.03188860  0.19020788  0.15320899     1.01100
O208        O  0.09157793  0.16323160  0.22990576    -0.86800
O209        O  0.12226033  0.16067485  0.14673803    -0.83900
C210        C  0.14406878  0.16885343  0.16303579     0.96700
O211        O  0.14653368  0.19299060  0.17492218    -0.83900
O212        O  0.12691365  0.24598500  0.19679579    -0.86500
C213        C  0.11524246  0.24811757  0.23753549     1.01200
O214        O  0.09712261  0.23230548  0.24907172    -0.79300
O215        O  0.06141770  0.19299786  0.24834628    -0.79500
C216        C  0.07731520  0.17486643  0.26111614     1.01100
Cr217      Cr  0.08555069  0.17049479  0.15962265     1.93700
Cr218      Cr  0.12134740  0.21908443  0.14242553     1.93200
Cr219      Cr  0.06927467  0.22266983  0.20239685     1.39100
O220        O  0.09231014  0.20441066  0.16824207    -1.24500
O221        O  0.46663450  0.17172198  0.33358175    -0.86800
O222        O  0.43293758  0.17756465  0.41267343    -0.83800
C223        C  0.41512025  0.18741341  0.43963834     0.96700
O224        O  0.39388050  0.19701165  0.42178966    -0.83900
O225        O  0.41235019  0.24584555  0.39657208    -0.86500
C226        C  0.42964450  0.26101341  0.37863056     1.01200
O227        O  0.44018487  0.25618069  0.33796232    -0.79300
O228        O  0.47298879  0.21373213  0.34582618    -0.79500
C229        C  0.48095729  0.19018396  0.34943750     1.01100
O230        O  0.42129398  0.16314360  0.27272952    -0.86800
O231        O  0.39057365  0.16064841  0.35588118    -0.83900
C232        C  0.36882156  0.16880289  0.33929164     0.96700
O233        O  0.36636354  0.19295145  0.32750761    -0.83900
O234        O  0.38596258  0.24595021  0.30583523    -0.86500
C235        C  0.39761325  0.24805965  0.26507464     1.01200
O236        O  0.41571500  0.23222333  0.25352650    -0.79300
O237        O  0.45144411  0.19291154  0.25427990    -0.79500
C238        C  0.43556168  0.17476170  0.24151697     1.01100
Cr239      Cr  0.42730063  0.17044204  0.34301963     1.93700
Cr240      Cr  0.39150871  0.21903453  0.36016976     1.93200
Cr241      Cr  0.44357041  0.22260680  0.30020888     1.39100
O242        O  0.42054802  0.20435611  0.33437958    -1.24500
O243        O  0.35372984  0.09554102  0.27225613    -0.86800
O244        O  0.35628329  0.12624678  0.35542056    -0.83800
C245        C  0.34810100  0.14803930  0.33908273     0.96700
O246        O  0.32395749  0.15049917  0.32721997    -0.83900
O247        O  0.27096602  0.13090635  0.30535103    -0.86500
C248        C  0.26883885  0.11925033  0.26458270     1.01200
O249        O  0.28464150  0.10111869  0.25303658    -0.79300
O250        O  0.32394939  0.06539843  0.25376404    -0.79500
C251        C  0.34208945  0.08128679  0.24102236     1.01100
O252        O  0.34516689  0.05019933  0.33304568    -0.86800
O253        O  0.33935094  0.08389811  0.41217453    -0.83900
C254        C  0.32949386  0.10170426  0.43916139     0.96700
O255        O  0.31989352  0.12294318  0.42135058    -0.83900
O256        O  0.27103988  0.10451730  0.39604823    -0.86500
C257        C  0.25585811  0.08723615  0.37807525     1.01200
O258        O  0.26069317  0.07667328  0.33742246    -0.79300
O259        O  0.30315599  0.04385549  0.34529480    -0.79500
C260        C  0.32670944  0.03588140  0.34890004     1.01100
Cr261      Cr  0.34645739  0.08953204  0.34252742     1.93700
Cr262      Cr  0.29786828  0.12533772  0.35972407     1.93200
Cr263      Cr  0.29426754  0.07327450  0.29969677     1.39100
O264        O  0.31253705  0.09629863  0.33389032    -1.24500
O265        O  0.35371609  0.42529154  0.22933150    -0.86800
O266        O  0.35620570  0.39456741  0.14614289    -0.83800
C267        C  0.34804758  0.37283141  0.16275519     0.96700
O268        O  0.32389376  0.37039149  0.17452674    -0.83900
O269        O  0.27089942  0.39000688  0.19618736    -0.86500
C270        C  0.26877926  0.40167291  0.23694275     1.01200
O271        O  0.28460175  0.41979022  0.24850009    -0.79300
O272        O  0.32396209  0.45546128  0.24779229    -0.79500
C273        C  0.34209419  0.43955927  0.26055392     1.01100
O274        O  0.34517994  0.47063549  0.16851713    -0.86800
O275        O  0.33930506  0.43693786  0.08939881    -0.83900
C276        C  0.32943664  0.41913154  0.06241403     0.96700
O277        O  0.31983472  0.39789751  0.08023956    -0.83900
O278        O  0.27099664  0.41637142  0.10546761    -0.86500
C279        C  0.25584478  0.43369386  0.12338349     1.01200
O280        O  0.26068675  0.44425459  0.16404381    -0.79300
O281        O  0.30317129  0.47701533  0.15623325    -0.79500
C282        C  0.32672903  0.48496811  0.15264582     1.01100
Cr283      Cr  0.34642860  0.43130016  0.15904517     1.93700
Cr284      Cr  0.29781321  0.39553651  0.14186204     1.93200
Cr285      Cr  0.29426112  0.44761589  0.20183124     1.39100
O286        O  0.31250345  0.42457231  0.16766770    -1.24500
O287        O  0.46666730  0.34918972  0.16917038    -0.86800
O288        O  0.43297626  0.34333430  0.08999560    -0.83800
C289        C  0.41517033  0.33346672  0.06299533     0.96700
O290        O  0.39393195  0.32385906  0.08078959    -0.83900
O291        O  0.41233967  0.27501205  0.10610062    -0.86500
C292        C  0.42965424  0.25985483  0.12402946     1.01200
O293        O  0.44025321  0.26471476  0.16464968    -0.79300
O294        O  0.47303315  0.30719829  0.15681939    -0.79500
C295        C  0.48099465  0.33075190  0.15325827     1.01100
O296        O  0.42129890  0.35772410  0.22991067    -0.86800
O297        O  0.39061471  0.36027589  0.14670096    -0.83900
C298        C  0.36881484  0.35210769  0.16301356     0.96700
O299        O  0.36635613  0.32797460  0.17489830    -0.83900
O300        O  0.38595523  0.27498700  0.19679216    -0.86500
C301        C  0.39764411  0.27283412  0.23752936     1.01200
O302        O  0.41580056  0.28861455  0.24908214    -0.79300
O303        O  0.45146412  0.32796564  0.24839368    -0.79500
C304        C  0.43554832  0.34608442  0.26114477     1.01100
Cr305      Cr  0.42732976  0.35045302  0.15964302     1.93700
Cr306      Cr  0.39152678  0.30186395  0.14241865     1.93200
Cr307      Cr  0.44362330  0.29828255  0.20241776     1.39100
O308        O  0.42057333  0.31653617  0.16825621    -1.24500
O309        O  0.15911658  0.42542000  0.27201789    -0.86800
O310        O  0.15652141  0.39473468  0.35515948    -0.83800
C311        C  0.16470330  0.37291797  0.33893195     0.96700
O312        O  0.18883996  0.37044484  0.32705637    -0.83900
O313        O  0.24185262  0.39001911  0.30521532    -0.86500
C314        C  0.24400003  0.40169018  0.26447666     1.01200
O315        O  0.22820635  0.41982994  0.25292412    -0.79300
O316        O  0.18890856  0.45555413  0.25361936    -0.79500
C317        C  0.17077319  0.43966458  0.24082215     1.01100
O318        O  0.16768523  0.47075904  0.33284506    -0.86800
O319        O  0.17348614  0.43706548  0.41197831    -0.83900
C320        C  0.18334192  0.41925673  0.43896450     0.96700
O321        O  0.19293545  0.39801512  0.42115307    -0.83900
O322        O  0.24179860  0.41641212  0.39593929    -0.86500
C323        C  0.25698057  0.43369567  0.37801821     1.01200
O324        O  0.25214714  0.44426502  0.33737629    -0.79300
O325        O  0.20969236  0.47708725  0.34521758    -0.79500
C326        C  0.18614065  0.48506853  0.34876717     1.01100
Cr327      Cr  0.16637920  0.43143307  0.34230700     1.93700
Cr328      Cr  0.21495420  0.39560404  0.35956429     1.93200
Cr329      Cr  0.21857925  0.44767044  0.29959966     1.39100
O330        O  0.20029754  0.42464802  0.33372799    -1.24500
O331        O  0.04619419  0.34922912  0.33358203    -0.86800
O332        O  0.07989494  0.34336711  0.41271414    -0.83800
C333        C  0.09771648  0.33351874  0.43968856     0.96700
O334        O  0.11896198  0.32393811  0.42184979    -0.83900
O335        O  0.10051601  0.27509460  0.39657183    -0.86500
C336        C  0.08320524  0.25992997  0.37862843     1.01200
O337        O  0.07263640  0.26476497  0.33796880    -0.79300
O338        O  0.03983579  0.30722343  0.34579162    -0.79500
C339        C  0.03187118  0.33077310  0.34942468     1.01100
O340        O  0.09154364  0.35780063  0.27281492    -0.86800
O341        O  0.12227175  0.36028447  0.35601621    -0.83900
C342        C  0.14399635  0.35214334  0.33930470     0.96700
O343        O  0.14644648  0.32799332  0.32752658    -0.83900
O344        O  0.12688145  0.27500829  0.30586847    -0.86500
C345        C  0.11522960  0.27288861  0.26509572     1.01200
O346        O  0.09709763  0.28869402  0.25354352    -0.79300
O347        O  0.06139815  0.32802889  0.25426733    -0.79500
C348        C  0.07728830  0.34617694  0.24155655     1.01100
Cr349      Cr  0.08553391  0.35049948  0.34308286     1.93700
Cr350      Cr  0.12133175  0.30191526  0.36020467     1.93200
Cr351      Cr  0.06925289  0.29833283  0.30020390     1.39100
O352        O  0.09228153  0.31658423  0.33441066    -1.24500
O353        O  0.10372362  0.17538894  0.97990887    -0.86800
O354        O  0.10628212  0.14471051  0.89672091    -0.83800
C355        C  0.09810928  0.12290670  0.91299601     0.96700
O356        O  0.07397371  0.12044049  0.92487667    -0.83900
O357        O  0.02097559  0.14003054  0.94676950    -0.86500
C358        C  0.01883124  0.15170696  0.98751580     1.01200
O359        O  0.03461931  0.16985560  0.99906965    -0.79300
O360        O  0.07395451  0.20554252  0.49836574    -0.79500
C361        C  0.09208168  0.18963750  0.51113066     1.01100
O362        O  0.09516529  0.22074282  0.91913651    -0.86800
O363        O  0.08933180  0.18705287  0.83998436    -0.83900
C364        C  0.07947227  0.16924740  0.81298257     0.96700
O365        O  0.06985972  0.14801326  0.83077597    -0.83900
O366        O  0.02101172  0.16642023  0.85606964    -0.86500
C367        C  0.00584412  0.18371663  0.87400829     1.01200
O368        O  0.01069147  0.19429469  0.91464600    -0.79300
O369        O  0.05316068  0.22708832  0.90678856    -0.79500
C370        C  0.07671464  0.23505765  0.90321907     1.01100
Cr371      Cr  0.09644819  0.18141334  0.90963633     1.93700
Cr372      Cr  0.04785890  0.14560580  0.89239759     1.93200
Cr373      Cr  0.04426616  0.19768165  0.95240027     1.39100
O374        O  0.06252904  0.17464590  0.91824121    -1.24500
O375        O  0.21664557  0.09923628  0.91845178    -0.86800
O376        O  0.18294175  0.09339584  0.83932400    -0.83800
C377        C  0.16512544  0.08354781  0.81233046     0.96700
O378        O  0.14388463  0.07395437  0.83015032    -0.83900
O379        O  0.16236185  0.02512020  0.85538052    -0.86500
C380        C  0.17965318  0.00994716  0.87334886     1.01200
O381        O  0.19019434  0.01477527  0.91403667    -0.79300
O382        O  0.22300271  0.05722396  0.90623599    -0.79500
C383        C  0.23096972  0.08077221  0.90262120     1.01100
O384        O  0.17130509  0.10781405  0.97924858    -0.86800
O385        O  0.14056697  0.11029974  0.89606890    -0.83900
C386        C  0.11882992  0.10214311  0.91269277     0.96700
O387        O  0.11638115  0.07799082  0.92443794    -0.83900
O388        O  0.13597390  0.02500551  0.94607249    -0.86500
C389        C  0.14761281  0.02289726  0.98686091     1.01200
O390        O  0.16572288  0.03872434  0.99844323    -0.79300
O391        O  0.20145349  0.07804276  0.49775008    -0.79500
C392        C  0.18557244  0.09619578  0.51048445     1.01100
Cr393      Cr  0.17730603  0.10051518  0.90896898     1.93700
Cr394      Cr  0.14151974  0.05192371  0.89176451     1.93200
Cr395      Cr  0.19358128  0.04834719  0.95180560     1.39100
O396        O  0.17055932  0.06659994  0.91759905    -1.24500
O397        O  0.10372576  0.34562628  0.52279158    -0.86800
O398        O  0.10621947  0.37637800  0.60594728    -0.83800
C399        C  0.09804785  0.39810378  0.58928457     0.96700
O400        O  0.07388704  0.40053618  0.57753052    -0.83900
O401        O  0.02090555  0.38092259  0.55589384    -0.86500
C402        C  0.01879902  0.36927626  0.51511801     1.01200
O403        O  0.03462676  0.35116680  0.50357128    -0.79300
O404        O  0.07396077  0.31546522  0.00430667    -0.79500
C405        C  0.09210107  0.33135440  0.99156161     1.01100
O406        O  0.09518884  0.30029546  0.58362700    -0.86800
O407        O  0.08933938  0.33400268  0.66271893    -0.83900
C408        C  0.07947151  0.35180804  0.68968994     0.96700
O409        O  0.06988174  0.37304726  0.67184830    -0.83900
O410        O  0.02103544  0.35456189  0.64661512    -0.86500
C411        C  0.00586708  0.33725647  0.62866756     1.01200
O412        O  0.01069666  0.32670558  0.58799736    -0.79300
O413        O  0.05317593  0.29392139  0.59583571    -0.79500
C414        C  0.07673354  0.28596475  0.59945894     1.04300
Cr415      Cr  0.09644787  0.33963372  0.59307541     1.93700
Cr416      Cr  0.04783475  0.37539743  0.61022196     1.93200
Cr417      Cr  0.04426909  0.32332777  0.55023864     1.39100
O418        O  0.06252095  0.34636174  0.58442681    -1.24500
O419        O  0.21664782  0.42177314  0.58282610    -0.86800
O420        O  0.18297128  0.42763687  0.66197997    -0.83800
C421        C  0.16516214  0.43750164  0.68895214     0.96700
O422        O  0.14392098  0.44710589  0.67113066    -0.83900
O423        O  0.16230889  0.99595660  0.64583406    -0.86500
C424        C  0.17962950  0.01110792  0.62793892     1.01200
O425        O  0.19023113  0.00624351  0.58734035    -0.79300
O426        O  0.22301105  0.46376069  0.59521450    -0.79500
C427        C  0.23097443  0.44020674  0.59876718     1.01100
O428        O  0.17127612  0.41323396  0.52204849    -0.86800
O429        O  0.14061923  0.41067353  0.60524781    -0.83900
C430        C  0.11880679  0.41883239  0.58895064     0.96700
O431        O  0.11633378  0.44296061  0.57702488    -0.83900
O432        O  0.13592330  0.49596512  0.55510648    -0.86500
C433        C  0.14762420  0.49812226  0.51440001     1.01200
O434        O  0.16577380  0.48233551  0.50287742    -0.79300
O435        O  0.20143675  0.44299440  0.00360670    -0.79500
C436        C  0.18552291  0.42487406  0.99083260     1.01100
Cr437      Cr  0.17731827  0.42050817  0.59232644     1.93700
Cr438      Cr  0.14150270  0.46909209  0.60949846     1.93200
Cr439      Cr  0.19359854  0.47267561  0.54957668     1.39100
O440        O  0.17055147  0.45442258  0.58370380    -1.24500
O441        O  0.29622372  0.09918062  0.58299565    -0.86800
O442        O  0.32990792  0.09331841  0.66216858    -0.83800
C443        C  0.34771231  0.08345017  0.68916214     0.96700
O444        O  0.36895354  0.07384533  0.67136172    -0.83900
O445        O  0.35053177  0.02500321  0.64602931    -0.86500
C446        C  0.33321633  0.00984760  0.62808557     1.01200
O447        O  0.32262766  0.01470315  0.58745703    -0.79300
O448        O  0.28984905  0.05718914  0.59530259    -0.79500
C449        C  0.28189048  0.08074435  0.59887331     1.01100
O450        O  0.34158694  0.10771003  0.52226395    -0.86800
O451        O  0.37227504  0.11024524  0.60549043    -0.83900
C452        C  0.39406504  0.10208031  0.58911950     0.96700
O453        O  0.39652362  0.07794312  0.57723464    -0.83900
O454        O  0.37691072  0.02495211  0.55533735    -0.86500
C455        C  0.36522355  0.02281184  0.51459521     1.01200
O456        O  0.34708844  0.03861342  0.50305091    -0.79300
O457        O  0.31141801  0.07795532  0.00375653    -0.79500
C458        C  0.32732484  0.09608150  0.99102233     1.01100
Cr459      Cr  0.33555857  0.10043698  0.59253082     1.93700
Cr460      Cr  0.37135228  0.05184190  0.60971994     1.93200
Cr461      Cr  0.31926028  0.04827163  0.54971005     1.39100
O462        O  0.34230862  0.06651989  0.58389281    -1.24500
O463        O  0.40912595  0.17529923  0.52271971    -0.86800
O464        O  0.40664371  0.14456675  0.60585832    -0.83800
C465        C  0.41481802  0.12281791  0.58930291     0.96700
O466        O  0.43897244  0.12037918  0.57752980    -0.83900
O467        O  0.49195699  0.14002031  0.55583461    -0.86500
C468        C  0.49405734  0.15167437  0.51507311     1.01200
O469        O  0.47821439  0.16977393  0.50353037    -0.79300
O470        O  0.43887126  0.20547397  0.00429789    -0.79500
C471        C  0.42073999  0.18957528  0.99151648     1.01100
O472        O  0.41767067  0.22063804  0.58360267    -0.86800
O473        O  0.42353137  0.18693322  0.66266797    -0.83900
C474        C  0.43340158  0.16913111  0.68964179     0.96700
O475        O  0.44302203  0.14790333  0.67180419    -0.83900
O476        O  0.99185012  0.16639989  0.64657263    -0.86500
C477        C  0.00700813  0.18370135  0.62862863     1.01200
O478        O  0.00216402  0.19424063  0.58796252    -0.79300
O479        O  0.45968649  0.22701305  0.59584758    -0.79500
C480        C  0.43613000  0.23496922  0.59946046     1.01100
Cr481      Cr  0.41641630  0.18130091  0.59301385     1.93700
Cr482      Cr  0.46504332  0.14554575  0.61017860     1.93200
Cr483      Cr  0.46857859  0.19761053  0.55022106     1.39100
O484        O  0.45034122  0.17457322  0.58438508    -1.24500
O485        O  0.40913673  0.34555262  0.97991044    -0.86800
O486        O  0.40655930  0.37623533  0.89674489    -0.83800
C487        C  0.41473233  0.39803485  0.91307613     0.96700
O488        O  0.43887285  0.40050459  0.92496220    -0.83900
O489        O  0.49188248  0.38092672  0.94680759    -0.86500
C490        C  0.49402538  0.36925978  0.98755034     1.01200
O491        O  0.47823150  0.35112415  0.99908446    -0.79300
O492        O  0.43892859  0.31541636  0.49836783    -0.79500
C493        C  0.42078767  0.33130428  0.51112982     1.01100
O494        O  0.41769192  0.30020828  0.91911224    -0.86800
O495        O  0.42350965  0.33389225  0.83997561    -0.83900
C496        C  0.43336431  0.35170127  0.81300618     0.96700
O497        O  0.44294762  0.37294687  0.83083308    -0.83900
O498        O  0.99181215  0.35454044  0.85608633    -0.86500
C499        C  0.00699163  0.33724664  0.87401182     1.01200
O500        O  0.00216150  0.32667441  0.91464870    -0.79300
O501        O  0.45969537  0.29386362  0.90679469    -0.79500
C502        C  0.43614091  0.28589043  0.90321865     1.01100
Cr503      Cr  0.41639975  0.33953332  0.90963071     1.93700
Cr504      Cr  0.46497620  0.37535041  0.89244333     1.93200
Cr505      Cr  0.46859730  0.32328254  0.95240882     1.39100
O506        O  0.45031912  0.34630746  0.91825600    -1.24500
O507        O  0.29618966  0.42170002  0.91845908    -0.86800
O508        O  0.32989510  0.42753787  0.83938262    -0.83800
C509        C  0.34771260  0.43738812  0.81243073     0.96700
O510        O  0.36895339  0.44697922  0.83029400    -0.83900
O511        O  0.35048504  0.99582297  0.85552393    -0.86500
C512        C  0.33319240  0.01099798  0.87346969     1.01200
O513        O  0.32263980  0.00616496  0.91412495    -0.79300
O514        O  0.28983430  0.46370987  0.90624726    -0.79500
C515        C  0.28186618  0.44016138  0.90261349     1.01100
O516        O  0.34153067  0.41313078  0.97931987    -0.86800
O517        O  0.37226322  0.41063225  0.89618679    -0.83900
C518        C  0.39400650  0.41879194  0.91281923     0.96700
O519        O  0.39645661  0.44294259  0.92460179    -0.83900
O520        O  0.37686642  0.49592731  0.94626323    -0.86500
C521        C  0.36522335  0.49804048  0.98702882     1.01200
O522        O  0.34710603  0.48222229  0.99856409    -0.79300
O523        O  0.31138338  0.44290497  0.49779012    -0.79500
C524        C  0.32726784  0.42475638  0.51054169     1.01100
Cr525      Cr  0.33552820  0.42042187  0.90903446     1.93700
Cr526      Cr  0.37131864  0.46901204  0.89192208     1.93200
Cr527      Cr  0.31925283  0.47259465  0.95187088     1.39100
O528        O  0.34227684  0.45433835  0.91769576    -1.24500
O529        O  0.15913751  0.09566751  0.72923590    -0.86800
O530        O  0.15666764  0.12640138  0.64608147    -0.83800
C531        C  0.16483449  0.14813157  0.66274104     0.96700
O532        O  0.18899141  0.15056605  0.67452724    -0.83900
O533        O  0.24196757  0.13092802  0.69623216    -0.86500
C534        C  0.24406983  0.11927189  0.73699096     1.01200
O535        O  0.22823608  0.10116583  0.74850761    -0.79300
O536        O  0.18888127  0.06548704  0.74770309    -0.79500
C537        C  0.17074814  0.08138650  0.76045700     1.01100
O538        O  0.16766457  0.05032640  0.66836969    -0.86800
O539        O  0.17353769  0.08402741  0.58931092    -0.83900
C540        C  0.18340920  0.10182868  0.56235455     0.96700
O541        O  0.19302330  0.12305910  0.58020935    -0.83900
O542        O  0.24185711  0.10456497  0.60548889    -0.86500
C543        C  0.25701285  0.08725315  0.62343499     1.01200
O544        O  0.25216643  0.07669919  0.66408251    -0.79300
O545        O  0.20967521  0.04393883  0.65616190    -0.79500
C546        C  0.18611589  0.03598993  0.65252456     1.01100
Cr547      Cr  0.16642398  0.08966375  0.65895064     1.93700
Cr548      Cr  0.21505181  0.12541052  0.64186411     1.93200
Cr549      Cr  0.21858574  0.07333674  0.70180183     1.39100
O550        O  0.20035087  0.09638087  0.66762462    -1.24500
O551        O  0.04621988  0.17176740  0.66909936    -0.86800
O552        O  0.07990050  0.17760090  0.58996584    -0.83800
C553        C  0.09770400  0.18746432  0.56299278     0.96700
O554        O  0.11894662  0.19706617  0.58081394    -0.83900
O555        O  0.10051203  0.24591180  0.60607856    -0.86500
C556        C  0.08321661  0.26108134  0.62402006     1.01200
O557        O  0.07264966  0.25623715  0.66465389    -0.79300
O558        O  0.03985185  0.21376207  0.65678022    -0.79500
C559        C  0.03188859  0.19020785  0.65320893     1.01100
O560        O  0.09157796  0.16323160  0.72990586    -0.86800
O561        O  0.12226036  0.16067485  0.64673816    -0.83900
C562        C  0.14406881  0.16885345  0.66303581     0.96700
O563        O  0.14653371  0.19299064  0.67492218    -0.83900
O564        O  0.12691362  0.24598498  0.69679579    -0.86500
C565        C  0.11524244  0.24811757  0.73753551     1.01200
O566        O  0.09712254  0.23230551  0.74907173    -0.79300
O567        O  0.06141763  0.19299780  0.74834617    -0.79500
C568        C  0.07731517  0.17486641  0.76111614     1.01100
Cr569      Cr  0.08555072  0.17049478  0.65962275     1.93700
Cr570      Cr  0.12134741  0.21908441  0.64242545     1.93200
Cr571      Cr  0.06927466  0.22266981  0.70239674     1.39100
O572        O  0.09231018  0.20441064  0.66824209    -1.24500
O573        O  0.46663450  0.17172201  0.83358186    -0.86800
O574        O  0.43293765  0.17756475  0.91267347    -0.83800
C575        C  0.41512028  0.18741346  0.93963834     0.96700
O576        O  0.39388050  0.19701163  0.92178965    -0.83900
O577        O  0.41235022  0.24584552  0.89657216    -0.86500
C578        C  0.42964447  0.26101345  0.87863061     1.01200
O579        O  0.44018478  0.25618075  0.83796230    -0.79300
O580        O  0.47298885  0.21373217  0.84582612    -0.79500
C581        C  0.48095732  0.19018398  0.84943751     1.01100
O582        O  0.42129403  0.16314358  0.77272962    -0.86800
O583        O  0.39057364  0.16064843  0.85588129    -0.83900
C584        C  0.36882158  0.16880288  0.83929157     0.96700
O585        O  0.36636358  0.19295143  0.82750742    -0.83900
O586        O  0.38596259  0.24595023  0.80583533    -0.86500
C587        C  0.39761318  0.24805965  0.76507467     1.01200
O588        O  0.41571490  0.23222330  0.75352650    -0.79300
O589        O  0.45144413  0.19291155  0.75427989    -0.79500
C590        C  0.43556170  0.17476168  0.74151700     1.01100
Cr591      Cr  0.42730066  0.17044205  0.84301977     1.93700
Cr592      Cr  0.39150874  0.21903451  0.86016972     1.93200
Cr593      Cr  0.44357040  0.22260681  0.80020890     1.39100
O594        O  0.42054806  0.20435610  0.83437964    -1.24500
O595        O  0.35372987  0.09554104  0.77225616    -0.86800
O596        O  0.35628327  0.12624677  0.85542059    -0.83800
C597        C  0.34810100  0.14803929  0.83908271     0.96700
O598        O  0.32395749  0.15049918  0.82722006    -0.83900
O599        O  0.27096603  0.13090633  0.80535108    -0.86500
C600        C  0.26883888  0.11925032  0.76458274     1.01200
O601        O  0.28464153  0.10111867  0.75303666    -0.79300
O602        O  0.32394939  0.06539850  0.75376410    -0.79500
C603        C  0.34208948  0.08128681  0.74102242     1.01100
O604        O  0.34516689  0.05019932  0.83304553    -0.86800
O605        O  0.33935080  0.08389804  0.91217435    -0.83900
C606        C  0.32949388  0.10170424  0.93916128     0.96700
O607        O  0.31989357  0.12294318  0.92135053    -0.83900
O608        O  0.27103986  0.10451726  0.89604820    -0.86500
C609        C  0.25585807  0.08723614  0.87807521     1.01200
O610        O  0.26069315  0.07667324  0.83742243    -0.79300
O611        O  0.30315603  0.04385546  0.84529476    -0.79500
C612        C  0.32670947  0.03588138  0.84889996     1.01100
Cr613      Cr  0.34645731  0.08953203  0.84252733     1.93700
Cr614      Cr  0.29786828  0.12533770  0.85972412     1.93200
Cr615      Cr  0.29426754  0.07327448  0.79969682     1.39100
O616        O  0.31253700  0.09629864  0.83389028    -1.24500
O617        O  0.35371614  0.42529161  0.72933162    -0.86800
O618        O  0.35620576  0.39456741  0.64614308    -0.83800
C619        C  0.34804760  0.37283139  0.66275530     0.96700
O620        O  0.32389375  0.37039146  0.67452660    -0.83900
O621        O  0.27089945  0.39000688  0.69618727    -0.86500
C622        C  0.26877925  0.40167294  0.73694264     1.01200
O623        O  0.28460173  0.41979025  0.74850004    -0.79300
O624        O  0.32396214  0.45546138  0.74779230    -0.79500
C625        C  0.34209418  0.43955932  0.76055403     1.01100
O626        O  0.34517997  0.47063548  0.66851719    -0.86800
O627        O  0.33930511  0.43693784  0.58939880    -0.83900
C628        C  0.32943668  0.41913153  0.56241399     0.96700
O629        O  0.31983479  0.39789749  0.58023952    -0.83900
O630        O  0.27099666  0.41637146  0.60546755    -0.86500
C631        C  0.25584479  0.43369388  0.62338354     1.01200
O632        O  0.26068677  0.44425455  0.66404390    -0.79300
O633        O  0.30317132  0.47701532  0.65623333    -0.79500
C634        C  0.32672905  0.48496807  0.65264580     1.01100
Cr635      Cr  0.34642863  0.43130016  0.65904527     1.93700
Cr636      Cr  0.29781324  0.39553651  0.64186193     1.93200
Cr637      Cr  0.29426116  0.44761590  0.70183130     1.39100
O638        O  0.31250349  0.42457228  0.66766778    -1.24500
O639        O  0.46666729  0.34918975  0.66917029    -0.86800
O640        O  0.43297628  0.34333427  0.58999556    -0.83800
C641        C  0.41517035  0.33346668  0.56299535     0.96700
O642        O  0.39393198  0.32385902  0.58078961    -0.83900
O643        O  0.41233971  0.27501205  0.60610076    -0.86500
C644        C  0.42965428  0.25985482  0.62402959     1.01200
O645        O  0.44025321  0.26471476  0.66464985    -0.79300
O646        O  0.47303307  0.30719831  0.65681952    -0.79500
C647        C  0.48099465  0.33075189  0.65325840     1.01100
O648        O  0.42129888  0.35772418  0.72991069    -0.86800
O649        O  0.39061471  0.36027584  0.64670106    -0.83900
C650        C  0.36881484  0.35210767  0.66301371     0.96700
O651        O  0.36635609  0.32797457  0.67489838    -0.83900
O652        O  0.38595527  0.27498698  0.69679215    -0.86500
C653        C  0.39764403  0.27283415  0.73752945     1.01200
O654        O  0.41580044  0.28861463  0.74908233    -0.79300
O655        O  0.45146408  0.32796575  0.74839363    -0.79500
C656        C  0.43554830  0.34608449  0.76114478     1.01100
Cr657      Cr  0.42732976  0.35045303  0.65964297     1.93700
Cr658      Cr  0.39152679  0.30186394  0.64241873     1.93200
Cr659      Cr  0.44362321  0.29828262  0.70241790     1.39100
O660        O  0.42057329  0.31653620  0.66825627    -1.24500
O661        O  0.15911661  0.42541997  0.77201790    -0.86800
O662        O  0.15652139  0.39473468  0.85515940    -0.83800
C663        C  0.16470331  0.37291795  0.83893189     0.96700
O664        O  0.18883996  0.37044484  0.82705640    -0.83900
O665        O  0.24185258  0.39001911  0.80521527    -0.86500
C666        C  0.24400000  0.40169017  0.76447662     1.01200
O667        O  0.22820628  0.41982990  0.75292419    -0.79300
O668        O  0.18890859  0.45555411  0.75361946    -0.79500
C669        C  0.17077322  0.43966457  0.74082219     1.01100
O670        O  0.16768527  0.47075903  0.83284503    -0.86800
O671        O  0.17348616  0.43706548  0.91197843    -0.83900
C672        C  0.18334192  0.41925672  0.93896458     0.96700
O673        O  0.19293541  0.39801511  0.92115310    -0.83900
O674        O  0.24179863  0.41641210  0.89593921    -0.86500
C675        C  0.25698062  0.43369564  0.87801818     1.01200
O676        O  0.25214719  0.44426503  0.83737632    -0.79300
O677        O  0.20969240  0.47708728  0.84521756    -0.79500
C678        C  0.18614067  0.48506851  0.84876722     1.01100
Cr679      Cr  0.16637922  0.43143306  0.84230705     1.93700
Cr680      Cr  0.21495418  0.39560409  0.85956426     1.93200
Cr681      Cr  0.21857927  0.44767043  0.79959974     1.39100
O682        O  0.20029754  0.42464806  0.83372807    -1.24500
O683        O  0.04619421  0.34922911  0.83358217    -0.86800
O684        O  0.07989497  0.34336710  0.91271426    -0.83800
C685        C  0.09771650  0.33351872  0.93968867     0.96700
O686        O  0.11896198  0.32393808  0.92184989    -0.83900
O687        O  0.10051600  0.27509458  0.89657192    -0.86500
C688        C  0.08320526  0.25992995  0.87862844     1.01200
O689        O  0.07263641  0.26476496  0.83796881    -0.79300
O690        O  0.03983578  0.30722340  0.84579167    -0.79500
C691        C  0.03187117  0.33077308  0.84942468     1.01100
O692        O  0.09154361  0.35780057  0.77281501    -0.86800
O693        O  0.12227178  0.36028445  0.85601616    -0.83900
C694        C  0.14399635  0.35214332  0.83930470     0.96700
O695        O  0.14644645  0.32799328  0.82752657    -0.83900
O696        O  0.12688144  0.27500837  0.80586843    -0.86500
C697        C  0.11522959  0.27288867  0.76509568     1.01200
O698        O  0.09709763  0.28869409  0.75354342    -0.79300
O699        O  0.06139801  0.32802893  0.75426740    -0.79500
C700        C  0.07728823  0.34617692  0.74155660     1.01100
Cr701      Cr  0.08553392  0.35049945  0.84308296     1.93700
Cr702      Cr  0.12133169  0.30191526  0.86020473     1.93200
Cr703      Cr  0.06925282  0.29833282  0.80020385     1.39100
O704        O  0.09228146  0.31658420  0.83441071    -1.24500
O705        O  0.10372358  0.67538894  0.47990892    -0.86800
O706        O  0.10628209  0.64471052  0.39672077    -0.83800
C707        C  0.09810929  0.62290673  0.41299595     0.96700
O708        O  0.07397371  0.62044048  0.42487648    -0.83900
O709        O  0.02097567  0.64003051  0.44676953    -0.86500
C710        C  0.01883126  0.65170698  0.48751580     1.01200
O711        O  0.03461940  0.66985553  0.49906976    -0.79300
O712        O  0.07395458  0.70554255  0.99836568    -0.79500
C713        C  0.09208175  0.68963753  0.01113061     1.01100
O714        O  0.09516528  0.72074286  0.41913653    -0.86800
O715        O  0.08933182  0.68705290  0.33998435    -0.83900
C716        C  0.07947236  0.66924740  0.31298254     0.96700
O717        O  0.06985978  0.64801330  0.33077593    -0.83900
O718        O  0.02101170  0.66642021  0.35606969    -0.86500
C719        C  0.00584410  0.68371661  0.37400839     1.01200
O720        O  0.01069146  0.69429466  0.41464611    -0.79300
O721        O  0.05316068  0.72708834  0.40678855    -0.79500
C722        C  0.07671460  0.73505769  0.40321903     1.01100
Cr723      Cr  0.09644816  0.68141335  0.40963632     1.93700
Cr724      Cr  0.04785894  0.64560583  0.39239752     1.93200
Cr725      Cr  0.04426620  0.69768164  0.45240036     1.39100
O726        O  0.06252905  0.67464592  0.41824120    -1.24500
O727        O  0.21664559  0.59923622  0.41845199    -0.86800
O728        O  0.18294181  0.59339589  0.33932412    -0.83800
C729        C  0.16512551  0.58354792  0.31233050     0.96700
O730        O  0.14388468  0.57395448  0.33015026    -0.83900
O731        O  0.16236188  0.52512028  0.35538033    -0.86500
C732        C  0.17965315  0.50994718  0.37334874     1.01200
O733        O  0.19019428  0.51477531  0.41403658    -0.79300
O734        O  0.22300274  0.55722395  0.40623586    -0.79500
C735        C  0.23096978  0.58077222  0.40262129     1.01100
O736        O  0.17130502  0.60781406  0.47924863    -0.86800
O737        O  0.14056696  0.61029970  0.39606900    -0.83900
C738        C  0.11882990  0.60214312  0.41269291     0.96700
O739        O  0.11638110  0.57799086  0.42443803    -0.83900
O740        O  0.13597387  0.52500565  0.44607253    -0.86500
C741        C  0.14761284  0.52289737  0.48686089     1.01200
O742        O  0.16572294  0.53872441  0.49844322    -0.79300
O743        O  0.20145351  0.57804279  0.99775014    -0.79500
C744        C  0.18557243  0.59619578  0.01048446     1.01100
Cr745      Cr  0.17730601  0.60051514  0.40896910     1.93700
Cr746      Cr  0.14151969  0.55192378  0.39176442     1.93200
Cr747      Cr  0.19358125  0.54834723  0.45180548     1.39100
O748        O  0.17055925  0.56659995  0.41759907    -1.24500
O749        O  0.10372570  0.84562632  0.02279163    -0.86800
O750        O  0.10621943  0.87637795  0.10594717    -0.83800
C751        C  0.09804781  0.89810374  0.08928453     0.96700
O752        O  0.07388700  0.90053617  0.07753052    -0.83900
O753        O  0.02090550  0.88092249  0.05589397    -0.86500
C754        C  0.01879903  0.86927624  0.01511803     1.01200
O755        O  0.03462673  0.85116676  0.00357123    -0.79300
O756        O  0.07396071  0.81546528  0.50430659    -0.79500
C757        C  0.09210102  0.83135444  0.49156153     1.01100
O758        O  0.09518875  0.80029546  0.08362710    -0.86800
O759        O  0.08933928  0.83400264  0.16271890    -0.83900
C760        C  0.07947151  0.85180805  0.18968991     0.96700
O761        O  0.06988182  0.87304729  0.17184827    -0.83900
O762        O  0.02103552  0.85456176  0.14661514    -0.86500
C763        C  0.00586707  0.83725644  0.12866746     1.01200
O764        O  0.01069658  0.82670563  0.08799717    -0.79300
O765        O  0.05317585  0.79392137  0.09583578    -0.79500
C766        C  0.07673344  0.78596476  0.09945911     1.04300
Cr767      Cr  0.09644778  0.83963369  0.09307538     1.93700
Cr768      Cr  0.04783472  0.87539739  0.11022201     1.93200
Cr769      Cr  0.04426902  0.82332773  0.05023856     1.39100
O770        O  0.06252088  0.84636173  0.08442672    -1.24500
O771        O  0.21664774  0.92177306  0.08282620    -0.86800
O772        O  0.18297118  0.92763683  0.16197998    -0.83800
C773        C  0.16516207  0.93750164  0.18895216     0.96700
O774        O  0.14392088  0.94710581  0.17113072    -0.83900
O775        O  0.16230892  0.49595664  0.14583416    -0.86500
C776        C  0.17962957  0.51110795  0.12793904     1.01200
O777        O  0.19023120  0.50624354  0.08734047    -0.79300
O778        O  0.22301110  0.96376062  0.09521439    -0.79500
C779        C  0.23097441  0.94020667  0.09876714     1.01100
O780        O  0.17127604  0.91323404  0.02204852    -0.86800
O781        O  0.14061920  0.91067352  0.10524773    -0.83900
C782        C  0.11880676  0.91883236  0.08895054     0.96700
O783        O  0.11633378  0.94296056  0.07702472    -0.83900
O784        O  0.13592333  0.99596505  0.05510665    -0.86500
C785        C  0.14762421  0.99812217  0.01440013     1.01200
O786        O  0.16577386  0.98233547  0.00287758    -0.79300
O787        O  0.20143673  0.94299440  0.50360654    -0.79500
C788        C  0.18552287  0.92487406  0.49083252     1.01100
Cr789      Cr  0.17731819  0.92050819  0.09232641     1.93700
Cr790      Cr  0.14150265  0.96909202  0.10949856     1.93200
Cr791      Cr  0.19359857  0.97267556  0.04957678     1.39100
O792        O  0.17055144  0.95442257  0.08370385    -1.24500
O793        O  0.29622365  0.59918061  0.08299548    -0.86800
O794        O  0.32990788  0.59331848  0.16216849    -0.83800
C795        C  0.34771226  0.58345016  0.18916201     0.96700
O796        O  0.36895348  0.57384525  0.17136157    -0.83900
O797        O  0.35053188  0.52500312  0.14602914    -0.86500
C798        C  0.33321630  0.50984759  0.12808552     1.01200
O799        O  0.32262762  0.51470319  0.08745704    -0.79300
O800        O  0.28984911  0.55718912  0.09530251    -0.79500
C801        C  0.28189049  0.58074429  0.09887331     1.01100
O802        O  0.34158698  0.60770997  0.02226386    -0.86800
O803        O  0.37227502  0.61024532  0.10549049    -0.83900
C804        C  0.39406504  0.60208036  0.08911948     0.96700
O805        O  0.39652357  0.57794320  0.07723449    -0.83900
O806        O  0.37691072  0.52495215  0.05533721    -0.86500
C807        C  0.36522357  0.52281190  0.01459508     1.01200
O808        O  0.34708851  0.53861354  0.00305076    -0.79300
O809        O  0.31141799  0.57795533  0.50375664    -0.79500
C810        C  0.32732479  0.59608152  0.49102243     1.01100
Cr811      Cr  0.33555852  0.60043703  0.09253073     1.93700
Cr812      Cr  0.37135231  0.55184189  0.10971979     1.93200
Cr813      Cr  0.31926034  0.54827168  0.04970993     1.39100
O814        O  0.34230864  0.56651993  0.08389275    -1.24500
O815        O  0.40912602  0.67529927  0.02271963    -0.86800
O816        O  0.40664379  0.64456680  0.10585816    -0.83800
C817        C  0.41481805  0.62281795  0.08930293     0.96700
O818        O  0.43897251  0.62037916  0.07752985    -0.83900
O819        O  0.49195697  0.64002024  0.05583456    -0.86500
C820        C  0.49405734  0.65167430  0.01507307     1.01200
O821        O  0.47821443  0.66977391  0.00353036    -0.79300
O822        O  0.43887129  0.70547403  0.50429781    -0.79500
C823        C  0.42074001  0.68957533  0.49151650     1.01100
O824        O  0.41767071  0.72063807  0.08360253    -0.86800
O825        O  0.42353133  0.68693316  0.16266797    -0.83900
C826        C  0.43340160  0.66913110  0.18964180     0.96700
O827        O  0.44302211  0.64790333  0.17180423    -0.83900
O828        O  0.99185007  0.66639989  0.14657263    -0.86500
C829        C  0.00700810  0.68370131  0.12862865     1.01200
O830        O  0.00216405  0.69424051  0.08796243    -0.79300
O831        O  0.45968650  0.72701304  0.09584777    -0.79500
C832        C  0.43612999  0.73496922  0.09946051     1.01100
Cr833      Cr  0.41641638  0.68130095  0.09301374     1.93700
Cr834      Cr  0.46504340  0.64554574  0.11017864     1.93200
Cr835      Cr  0.46857864  0.69761050  0.05022113     1.39100
O836        O  0.45034130  0.67457321  0.08438507    -1.24500
O837        O  0.40913668  0.84555258  0.47991054    -0.86800
O838        O  0.40655937  0.87623539  0.39674508    -0.83800
C839        C  0.41473240  0.89803488  0.41307625     0.96700
O840        O  0.43887293  0.90050463  0.42496230    -0.83900
O841        O  0.49188252  0.88092663  0.44680751    -0.86500
C842        C  0.49402541  0.86925976  0.48755033     1.01200
O843        O  0.47823151  0.85112416  0.49908449    -0.79300
O844        O  0.43892859  0.81541641  0.99836782    -0.79500
C845        C  0.42078767  0.83130434  0.01112975     1.01100
O846        O  0.41769187  0.80020827  0.41911217    -0.86800
O847        O  0.42350956  0.83389221  0.33997560    -0.83900
C848        C  0.43336428  0.85170120  0.31300617     0.96700
O849        O  0.44294754  0.87294681  0.33083309    -0.83900
O850        O  0.99181220  0.85454038  0.35608626    -0.86500
C851        C  0.00699171  0.83724662  0.37401182     1.01200
O852        O  0.00216158  0.82667437  0.41464866    -0.79300
O853        O  0.45969532  0.79386367  0.40679455    -0.79500
C854        C  0.43614088  0.78589044  0.40321858     1.01100
Cr855      Cr  0.41639969  0.83953334  0.40963078     1.93700
Cr856      Cr  0.46497617  0.87535035  0.39244328     1.93200
Cr857      Cr  0.46859727  0.82328259  0.45240874     1.39100
O858        O  0.45031906  0.84630746  0.41825595    -1.24500
O859        O  0.29618965  0.92169993  0.41845890    -0.86800
O860        O  0.32989512  0.92753782  0.33938249    -0.83800
C861        C  0.34771261  0.93738808  0.31243060     0.96700
O862        O  0.36895343  0.94697914  0.33029387    -0.83900
O863        O  0.35048500  0.49582303  0.35552406    -0.86500
C864        C  0.33319234  0.51099803  0.37346982     1.01200
O865        O  0.32263975  0.50616501  0.41412507    -0.79300
O866        O  0.28983431  0.96370979  0.40624713    -0.79500
C867        C  0.28186616  0.94016133  0.40261338     1.01100
O868        O  0.34153063  0.91313069  0.47931974    -0.86800
O869        O  0.37226329  0.91063221  0.39618666    -0.83900
C870        C  0.39400656  0.91879197  0.41281920     0.96700
O871        O  0.39645659  0.94294259  0.42460185    -0.83900
O872        O  0.37686645  0.99592726  0.44626333    -0.86500
C873        C  0.36522336  0.99804042  0.48702891     1.01200
O874        O  0.34710603  0.98222224  0.49856411    -0.79300
O875        O  0.31138343  0.94290501  0.99779023    -0.79500
C876        C  0.32726790  0.92475644  0.01054179     1.01100
Cr877      Cr  0.33552824  0.92042179  0.40903429     1.93700
Cr878      Cr  0.37131871  0.96901201  0.39192201     1.93200
Cr879      Cr  0.31925290  0.97259458  0.45187074     1.39100
O880        O  0.34227691  0.95433827  0.41769564    -1.24500
O881        O  0.15913758  0.59566756  0.22923592    -0.86800
O882        O  0.15666756  0.62640133  0.14608154    -0.83800
C883        C  0.16483444  0.64813152  0.16274093     0.96700
O884        O  0.18899141  0.65056601  0.17452704    -0.83900
O885        O  0.24196755  0.63092794  0.19623213    -0.86500
C886        C  0.24406978  0.61927189  0.23699102     1.01200
O887        O  0.22823607  0.60116581  0.24850774    -0.79300
O888        O  0.18888134  0.56548709  0.24770326    -0.79500
C889        C  0.17074824  0.58138659  0.26045707     1.01100
O890        O  0.16766462  0.55032637  0.16836980    -0.86800
O891        O  0.17353758  0.58402741  0.08931084    -0.83900
C892        C  0.18340918  0.60182866  0.06235450     0.96700
O893        O  0.19302341  0.62305902  0.08020926    -0.83900
O894        O  0.24185716  0.60456490  0.10548890    -0.86500
C895        C  0.25701285  0.58725308  0.12343501     1.01200
O896        O  0.25216646  0.57669919  0.16408265    -0.79300
O897        O  0.20967528  0.54393879  0.15616212    -0.79500
C898        C  0.18611596  0.53598993  0.15252467     1.01100
Cr899      Cr  0.16642396  0.58966371  0.15895064     1.93700
Cr900      Cr  0.21505187  0.62541045  0.14186403     1.93200
Cr901      Cr  0.21858579  0.57333671  0.20180201     1.39100
O902        O  0.20035089  0.59638082  0.16762465    -1.24500
O903        O  0.04621984  0.67176743  0.16909946    -0.86800
O904        O  0.07990050  0.67760099  0.08996573    -0.83800
C905        C  0.09770406  0.68746434  0.06299273     0.96700
O906        O  0.11894666  0.69706620  0.08081397    -0.83900
O907        O  0.10051194  0.74591180  0.10607865    -0.86500
C908        C  0.08321653  0.76108133  0.12402020     1.01200
O909        O  0.07264958  0.75623710  0.16465402    -0.79300
O910        O  0.03985184  0.71376205  0.15678030    -0.79500
C911        C  0.03188855  0.69020787  0.15320899     1.01100
O912        O  0.09157791  0.66323150  0.22990573    -0.86800
O913        O  0.12226031  0.66067483  0.14673807    -0.83900
C914        C  0.14406878  0.66885345  0.16303574     0.96700
O915        O  0.14653367  0.69299063  0.17492214    -0.83900
O916        O  0.12691358  0.74598506  0.19679578    -0.86500
C917        C  0.11524241  0.74811756  0.23753550     1.01200
O918        O  0.09712259  0.73230543  0.24907172    -0.79300
O919        O  0.06141769  0.69299774  0.24834626    -0.79500
C920        C  0.07731523  0.67486638  0.26111613     1.01100
Cr921      Cr  0.08555066  0.67049481  0.15962264     1.93700
Cr922      Cr  0.12134737  0.71908445  0.14242551     1.93200
Cr923      Cr  0.06927464  0.72266975  0.20239685     1.39100
O924        O  0.09231015  0.70441064  0.16824214    -1.24500
O925        O  0.46663447  0.67172202  0.33358173    -0.86800
O926        O  0.43293764  0.67756475  0.41267341    -0.83800
C927        C  0.41512028  0.68741345  0.43963834     0.96700
O928        O  0.39388047  0.69701153  0.42178964    -0.83900
O929        O  0.41235018  0.74584550  0.39657208    -0.86500
C930        C  0.42964446  0.76101342  0.37863056     1.01200
O931        O  0.44018484  0.75618074  0.33796231    -0.79300
O932        O  0.47298882  0.71373216  0.34582621    -0.79500
C933        C  0.48095728  0.69018396  0.34943751     1.01100
O934        O  0.42129405  0.66314364  0.27272955    -0.86800
O935        O  0.39057368  0.66064834  0.35588116    -0.83900
C936        C  0.36882158  0.66880284  0.33929166     0.96700
O937        O  0.36636360  0.69295138  0.32750754    -0.83900
O938        O  0.38596263  0.74595016  0.30583528    -0.86500
C939        C  0.39761324  0.74805961  0.26507462     1.01200
O940        O  0.41571500  0.73222330  0.25352646    -0.79300
O941        O  0.45144416  0.69291162  0.25427981    -0.79500
C942        C  0.43556175  0.67476172  0.24151696     1.01100
Cr943      Cr  0.42730066  0.67044208  0.34301964     1.93700
Cr944      Cr  0.39150872  0.71903445  0.36016975     1.93200
Cr945      Cr  0.44357046  0.72260685  0.30020887     1.39100
O946        O  0.42054807  0.70435613  0.33437957    -1.24500
O947        O  0.35372982  0.59554110  0.27225611    -0.86800
O948        O  0.35628326  0.62624677  0.35542058    -0.83800
C949        C  0.34810098  0.64803927  0.33908278     0.96700
O950        O  0.32395746  0.65049912  0.32721996    -0.83900
O951        O  0.27096598  0.63090635  0.30535102    -0.86500
C952        C  0.26883883  0.61925034  0.26458272     1.01200
O953        O  0.28464152  0.60111874  0.25303660    -0.79300
O954        O  0.32394941  0.56539849  0.25376405    -0.79500
C955        C  0.34208947  0.58128682  0.24102235     1.01100
O956        O  0.34516686  0.55019934  0.33304567    -0.86800
O957        O  0.33935089  0.58389817  0.41217453    -0.83900
C958        C  0.32949382  0.60170431  0.43916140     0.96700
O959        O  0.31989347  0.62294323  0.42135060    -0.83900
O960        O  0.27103983  0.60451734  0.39604824    -0.86500
C961        C  0.25585809  0.58723619  0.37807523     1.01200
O962        O  0.26069318  0.57667334  0.33742245    -0.79300
O963        O  0.30315597  0.54385548  0.34529474    -0.79500
C964        C  0.32670942  0.53588140  0.34890001     1.01100
Cr965      Cr  0.34645736  0.58953207  0.34252741     1.93700
Cr966      Cr  0.29786824  0.62533770  0.35972407     1.93200
Cr967      Cr  0.29426758  0.57327454  0.29969678     1.39100
O968        O  0.31253704  0.59629866  0.33389033    -1.24500
O969        O  0.35371607  0.92529155  0.22933149    -0.86800
O970        O  0.35620574  0.89456747  0.14614286    -0.83800
C971        C  0.34804764  0.87283147  0.16275517     0.96700
O972        O  0.32389381  0.87039156  0.17452674    -0.83900
O973        O  0.27089948  0.89000681  0.19618741    -0.86500
C974        C  0.26877927  0.90167294  0.23694269     1.01200
O975        O  0.28460180  0.91979022  0.24849996    -0.79300
O976        O  0.32396211  0.95546132  0.24779222    -0.79500
C977        C  0.34209416  0.93955927  0.26055392     1.01100
O978        O  0.34517996  0.97063550  0.16851711    -0.86800
O979        O  0.33930505  0.93693795  0.08939884    -0.83900
C980        C  0.32943670  0.91913160  0.06241403     0.96700
O981        O  0.31983470  0.89789761  0.08023953    -0.83900
O982        O  0.27099661  0.91637144  0.10546763    -0.86500
C983        C  0.25584472  0.93369385  0.12338353     1.01200
O984        O  0.26068670  0.94425461  0.16404381    -0.79300
O985        O  0.30317130  0.97701536  0.15623331    -0.79500
C986        C  0.32672904  0.98496812  0.15264586     1.01100
Cr987      Cr  0.34642857  0.93130021  0.15904517     1.93700
Cr988      Cr  0.29781321  0.89553655  0.14186203     1.93200
Cr989      Cr  0.29426111  0.94761590  0.20183121     1.39100
O990        O  0.31250343  0.92457235  0.16766765    -1.24500
O991        O  0.46666725  0.84918972  0.16917037    -0.86800
O992        O  0.43297623  0.84333421  0.08999566    -0.83800
C993        C  0.41517030  0.83346671  0.06299532     0.96700
O994        O  0.39393192  0.82385902  0.08078950    -0.83900
O995        O  0.41233973  0.77501212  0.10610059    -0.86500
C996        C  0.42965423  0.75985484  0.12402952     1.01200
O997        O  0.44025318  0.76471479  0.16464974    -0.79300
O998        O  0.47303310  0.80719831  0.15681939    -0.79500
C999        C  0.48099461  0.83075192  0.15325826     1.01100
O1000       O  0.42129887  0.85772414  0.22991070    -0.86800
O1001       O  0.39061474  0.86027588  0.14670098    -0.83900
C1002       C  0.36881484  0.85210769  0.16301355     0.96700
O1003       O  0.36635610  0.82797461  0.17489822    -0.83900
O1004       O  0.38595518  0.77498705  0.19679219    -0.86500
C1005       C  0.39764408  0.77283412  0.23752937     1.01200
O1006       O  0.41580055  0.78861454  0.24908217    -0.79300
O1007       O  0.45146409  0.82796569  0.24839361    -0.79500
C1008       C  0.43554830  0.84608444  0.26114476     1.01100
Cr1009     Cr  0.42732973  0.85045299  0.15964303     1.93700
Cr1010     Cr  0.39152676  0.80186397  0.14241863     1.93200
Cr1011     Cr  0.44362326  0.79828259  0.20241777     1.39100
O1012       O  0.42057327  0.81653618  0.16825625    -1.24500
O1013       O  0.15911667  0.92542004  0.27201791    -0.86800
O1014       O  0.15652147  0.89473473  0.35515949    -0.83800
C1015       C  0.16470334  0.87291800  0.33893192     0.96700
O1016       O  0.18883997  0.87044488  0.32705632    -0.83900
O1017       O  0.24185257  0.89001911  0.30521525    -0.86500
C1018       C  0.24400002  0.90169024  0.26447665     1.01200
O1019       O  0.22820633  0.91983000  0.25292415    -0.79300
O1020       O  0.18890854  0.95555424  0.25361933    -0.79500
C1021       C  0.17077318  0.93966468  0.24082215     1.01100
O1022       O  0.16768528  0.97075906  0.33284502    -0.86800
O1023       O  0.17348626  0.93706546  0.41197828    -0.83900
C1024       C  0.18334191  0.91925667  0.43896452     0.96700
O1025       O  0.19293542  0.89801505  0.42115312    -0.83900
O1026       O  0.24179852  0.91641215  0.39593930    -0.86500
C1027       C  0.25698054  0.93369564  0.37801819     1.01200
O1028       O  0.25214710  0.94426506  0.33737632    -0.79300
O1029       O  0.20969238  0.97708730  0.34521759    -0.79500
C1030       C  0.18614066  0.98506853  0.34876719     1.01100
Cr1031     Cr  0.16637929  0.93143312  0.34230700     1.93700
Cr1032     Cr  0.21495417  0.89560408  0.35956428     1.93200
Cr1033     Cr  0.21857923  0.94767052  0.29959965     1.39100
O1034       O  0.20029756  0.92464809  0.33372798    -1.24500
O1035       O  0.04619422  0.84922919  0.33358203    -0.86800
O1036       O  0.07989499  0.84336716  0.41271412    -0.83800
C1037       C  0.09771648  0.83351872  0.43968857     0.96700
O1038       O  0.11896198  0.82393806  0.42184983    -0.83900
O1039       O  0.10051605  0.77509459  0.39657180    -0.86500
C1040       C  0.08320527  0.75993000  0.37862843     1.01200
O1041       O  0.07263637  0.76476504  0.33796883    -0.79300
O1042       O  0.03983578  0.80722348  0.34579156    -0.79500
C1043       C  0.03187122  0.83077316  0.34942465     1.01100
O1044       O  0.09154369  0.85780062  0.27281488    -0.86800
O1045       O  0.12227180  0.86028446  0.35601626    -0.83900
C1046       C  0.14399636  0.85214336  0.33930470     0.96700
O1047       O  0.14644647  0.82799332  0.32752657    -0.83900
O1048       O  0.12688152  0.77500832  0.30586845    -0.86500
C1049       C  0.11522959  0.77288861  0.26509579     1.01200
O1050       O  0.09709768  0.78869409  0.25354358    -0.79300
O1051       O  0.06139816  0.82802889  0.25426732    -0.79500
C1052       C  0.07728830  0.84617693  0.24155654     1.01100
Cr1053     Cr  0.08553397  0.85049952  0.34308284     1.93700
Cr1054     Cr  0.12133174  0.80191528  0.36020466     1.93200
Cr1055     Cr  0.06925288  0.79833287  0.30020390     1.39100
O1056       O  0.09228151  0.81658426  0.33441069    -1.24500
O1057       O  0.10372359  0.67538895  0.97990890    -0.86800
O1058       O  0.10628209  0.64471053  0.89672088    -0.83800
C1059       C  0.09810926  0.62290674  0.91299601     0.96700
O1060       O  0.07397368  0.62044055  0.92487668    -0.83900
O1061       O  0.02097555  0.64003051  0.94676949    -0.86500
C1062       C  0.01883123  0.65170698  0.98751576     1.01200
O1063       O  0.03461943  0.66985549  0.99906961    -0.79300
O1064       O  0.07395459  0.70554257  0.49836572    -0.79500
C1065       C  0.09208175  0.68963753  0.51113065     1.01100
O1066       O  0.09516533  0.72074284  0.91913644    -0.86800
O1067       O  0.08933176  0.68705287  0.83998437    -0.83900
C1068       C  0.07947229  0.66924738  0.81298257     0.96700
O1069       O  0.06985966  0.64801329  0.83077597    -0.83900
O1070       O  0.02101165  0.66642020  0.85606969    -0.86500
C1071       C  0.00584411  0.68371667  0.87400833     1.01200
O1072       O  0.01069150  0.69429472  0.91464601    -0.79300
O1073       O  0.05316072  0.72708836  0.90678862    -0.79500
C1074       C  0.07671466  0.73505770  0.90321908     1.01100
Cr1075     Cr  0.09644817  0.68141333  0.90963632     1.93700
Cr1076     Cr  0.04785886  0.64560582  0.89239760     1.93200
Cr1077     Cr  0.04426623  0.69768163  0.95240028     1.39100
O1078       O  0.06252904  0.67464591  0.91824115    -1.24500
O1079       O  0.21664558  0.59923626  0.91845182    -0.86800
O1080       O  0.18294181  0.59339587  0.83932399    -0.83800
C1081       C  0.16512550  0.58354789  0.81233046     0.96700
O1082       O  0.14388469  0.57395444  0.83015033    -0.83900
O1083       O  0.16236182  0.52512020  0.85538051    -0.86500
C1084       C  0.17965314  0.50994715  0.87334887     1.01200
O1085       O  0.19019432  0.51477530  0.91403667    -0.79300
O1086       O  0.22300277  0.55722398  0.90623600    -0.79500
C1087       C  0.23096976  0.58077223  0.90262121     1.01100
O1088       O  0.17130507  0.60781403  0.97924859    -0.86800
O1089       O  0.14056696  0.61029976  0.89606889    -0.83900
C1090       C  0.11882990  0.60214315  0.91269277     0.96700
O1091       O  0.11638114  0.57799087  0.92443794    -0.83900
O1092       O  0.13597386  0.52500560  0.94607256    -0.86500
C1093       C  0.14761279  0.52289735  0.98686096     1.01200
O1094       O  0.16572291  0.53872438  0.99844322    -0.79300
O1095       O  0.20145347  0.57804281  0.49775002    -0.79500
C1096       C  0.18557236  0.59619577  0.51048446     1.01100
Cr1097     Cr  0.17730603  0.60051514  0.90896899     1.93700
Cr1098     Cr  0.14151971  0.55192376  0.89176450     1.93200
Cr1099     Cr  0.19358128  0.54834723  0.95180557     1.39100
O1100       O  0.17055930  0.56659994  0.91759905    -1.24500
O1101       O  0.10372572  0.84562631  0.52279158    -0.86800
O1102       O  0.10621945  0.87637795  0.60594729    -0.83800
C1103       C  0.09804783  0.89810374  0.58928458     0.96700
O1104       O  0.07388703  0.90053617  0.57753056    -0.83900
O1105       O  0.02090554  0.88092250  0.55589384    -0.86500
C1106       C  0.01879906  0.86927622  0.51511797     1.01200
O1107       O  0.03462675  0.85116672  0.50357127    -0.79300
O1108       O  0.07396072  0.81546528  0.00430667    -0.79500
C1109       C  0.09210103  0.83135443  0.99156161     1.01100
O1110       O  0.09518877  0.80029545  0.58362698    -0.86800
O1111       O  0.08933931  0.83400264  0.66271890    -0.83900
C1112       C  0.07947151  0.85180803  0.68968994     0.96700
O1113       O  0.06988172  0.87304724  0.67184832    -0.83900
O1114       O  0.02103543  0.85456180  0.64661516    -0.86500
C1115       C  0.00586703  0.83725641  0.62866755     1.01200
O1116       O  0.01069659  0.82670557  0.58799732    -0.79300
O1117       O  0.05317587  0.79392134  0.59583570    -0.79500
C1118       C  0.07673349  0.78596475  0.59945900     1.04300
Cr1119     Cr  0.09644782  0.83963368  0.59307540     1.93700
Cr1120     Cr  0.04783472  0.87539737  0.61022196     1.93200
Cr1121     Cr  0.04426904  0.82332771  0.55023864     1.39100
O1122       O  0.06252091  0.84636169  0.58442679    -1.24500
O1123       O  0.21664777  0.92177313  0.58282608    -0.86800
O1124       O  0.18297124  0.92763682  0.66198000    -0.83800
C1125       C  0.16516211  0.93750165  0.68895215     0.96700
O1126       O  0.14392092  0.94710581  0.67113064    -0.83900
O1127       O  0.16230891  0.49595667  0.64583408    -0.86500
C1128       C  0.17962949  0.51110798  0.62793891     1.01200
O1129       O  0.19023107  0.50624360  0.58734027    -0.79300
O1130       O  0.22301113  0.96376064  0.59521447    -0.79500
C1131       C  0.23097442  0.94020669  0.59876723     1.01100
O1132       O  0.17127606  0.91323403  0.52204851    -0.86800
O1133       O  0.14061920  0.91067353  0.60524784    -0.83900
C1134       C  0.11880677  0.91883233  0.58895066     0.96700
O1135       O  0.11633372  0.94296055  0.57702484    -0.83900
O1136       O  0.13592326  0.99596499  0.55510643    -0.86500
C1137       C  0.14762421  0.99812216  0.51440000     1.01200
O1138       O  0.16577388  0.98233546  0.50287746    -0.79300
O1139       O  0.20143671  0.94299441  0.00360666    -0.79500
C1140       C  0.18552289  0.92487405  0.99083259     1.01100
Cr1141     Cr  0.17731823  0.92050818  0.59232644     1.93700
Cr1142     Cr  0.14150266  0.96909200  0.60949844     1.93200
Cr1143     Cr  0.19359861  0.97267555  0.54957670     1.39100
O1144       O  0.17055147  0.95442255  0.58370380    -1.24500
O1145       O  0.29622368  0.59918067  0.58299564    -0.86800
O1146       O  0.32990792  0.59331847  0.66216862    -0.83800
C1147       C  0.34771227  0.58345014  0.68916213     0.96700
O1148       O  0.36895348  0.57384523  0.67136171    -0.83900
O1149       O  0.35053183  0.52500309  0.64602925    -0.86500
C1150       C  0.33321632  0.50984755  0.62808555     1.01200
O1151       O  0.32262763  0.51470315  0.58745706    -0.79300
O1152       O  0.28984910  0.55718917  0.59530266    -0.79500
C1153       C  0.28189047  0.58074436  0.59887328     1.01100
O1154       O  0.34158700  0.60770995  0.52226393    -0.86800
O1155       O  0.37227504  0.61024533  0.60549044    -0.83900
C1156       C  0.39406506  0.60208036  0.58911952     0.96700
O1157       O  0.39652360  0.57794317  0.57723468    -0.83900
O1158       O  0.37691068  0.52495216  0.55533730    -0.86500
C1159       C  0.36522354  0.52281192  0.51459515     1.01200
O1160       O  0.34708840  0.53861348  0.50305089    -0.79300
O1161       O  0.31141802  0.57795532  0.00375649    -0.79500
C1162       C  0.32732482  0.59608152  0.99102231     1.01100
Cr1163     Cr  0.33555855  0.60043702  0.59253082     1.93700
Cr1164     Cr  0.37135225  0.55184187  0.60971993     1.93200
Cr1165     Cr  0.31926026  0.54827166  0.54971007     1.39100
O1166       O  0.34230859  0.56651991  0.58389286    -1.24500
O1167       O  0.40912598  0.67529932  0.52271972    -0.86800
O1168       O  0.40664379  0.64456682  0.60585830    -0.83800
C1169       C  0.41481805  0.62281798  0.58930292     0.96700
O1170       O  0.43897248  0.62037923  0.57752978    -0.83900
O1171       O  0.49195697  0.64002022  0.55583462    -0.86500
C1172       C  0.49405737  0.65167427  0.51507311     1.01200
O1173       O  0.47821446  0.66977387  0.50353037    -0.79300
O1174       O  0.43887124  0.70547408  0.00429787    -0.79500
C1175       C  0.42073999  0.68957536  0.99151648     1.01100
O1176       O  0.41767072  0.72063809  0.58360265    -0.86800
O1177       O  0.42353138  0.68693320  0.66266798    -0.83900
C1178       C  0.43340159  0.66913111  0.68964181     0.96700
O1179       O  0.44302200  0.64790331  0.67180421    -0.83900
O1180       O  0.99185011  0.66639985  0.64657264    -0.86500
C1181       C  0.00700812  0.68370129  0.62862865     1.01200
O1182       O  0.00216406  0.69424050  0.58796246    -0.79300
O1183       O  0.45968654  0.72701309  0.59584757    -0.79500
C1184       C  0.43613003  0.73496928  0.59946042     1.01100
Cr1185     Cr  0.41641639  0.68130096  0.59301384     1.93700
Cr1186     Cr  0.46504334  0.64554575  0.61017862     1.93200
Cr1187     Cr  0.46857867  0.69761049  0.55022105     1.39100
O1188       O  0.45034129  0.67457323  0.58438506    -1.24500
O1189       O  0.40913668  0.84555258  0.97991042    -0.86800
O1190       O  0.40655932  0.87623539  0.89674492    -0.83800
C1191       C  0.41473238  0.89803488  0.91307611     0.96700
O1192       O  0.43887292  0.90050461  0.92496217    -0.83900
O1193       O  0.49188255  0.88092661  0.94680748    -0.86500
C1194       C  0.49402538  0.86925977  0.98755033     1.01200
O1195       O  0.47823144  0.85112421  0.99908449    -0.79300
O1196       O  0.43892860  0.81541642  0.49836785    -0.79500
C1197       C  0.42078767  0.83130433  0.51112983     1.01100
O1198       O  0.41769192  0.80020831  0.91911222    -0.86800
O1199       O  0.42350964  0.83389222  0.83997563    -0.83900
C1200       C  0.43336434  0.85170122  0.81300618     0.96700
O1201       O  0.44294756  0.87294684  0.83083309    -0.83900
O1202       O  0.99181212  0.85454032  0.85608627    -0.86500
C1203       C  0.00699168  0.83724661  0.87401183     1.01200
O1204       O  0.00216163  0.82667447  0.91464879    -0.79300
O1205       O  0.45969537  0.79386365  0.90679469    -0.79500
C1206       C  0.43614090  0.78589045  0.90321868     1.01100
Cr1207     Cr  0.41639971  0.83953335  0.90963070     1.93700
Cr1208     Cr  0.46497619  0.87535035  0.89244330     1.93200
Cr1209     Cr  0.46859729  0.82328260  0.95240882     1.39100
O1210       O  0.45031907  0.84630748  0.91825603    -1.24500
O1211       O  0.29618964  0.92170006  0.91845913    -0.86800
O1212       O  0.32989507  0.92753799  0.83938266    -0.83800
C1213       C  0.34771262  0.93738811  0.81243073     0.96700
O1214       O  0.36895347  0.94697911  0.83029399    -0.83900
O1215       O  0.35048499  0.49582300  0.85552396    -0.86500
C1216       C  0.33319235  0.51099800  0.87346972     1.01200
O1217       O  0.32263974  0.50616497  0.91412497    -0.79300
O1218       O  0.28983429  0.96370990  0.90624728    -0.79500
C1219       C  0.28186616  0.94016141  0.90261350     1.01100
O1220       O  0.34153064  0.91313070  0.97931983    -0.86800
O1221       O  0.37226323  0.91063229  0.89618681    -0.83900
C1222       C  0.39400655  0.91879199  0.91281924     0.96700
O1223       O  0.39645667  0.94294260  0.92460184    -0.83900
O1224       O  0.37686650  0.99592728  0.94626325    -0.86500
C1225       C  0.36522339  0.99804044  0.98702882     1.01200
O1226       O  0.34710609  0.98222224  0.99856404    -0.79300
O1227       O  0.31138336  0.94290496  0.49779006    -0.79500
C1228       C  0.32726781  0.92475639  0.51054166     1.01100
Cr1229     Cr  0.33552819  0.92042190  0.90903445     1.93700
Cr1230     Cr  0.37131873  0.96901200  0.89192207     1.93200
Cr1231     Cr  0.31925292  0.97259467  0.95187085     1.39100
O1232       O  0.34227692  0.95433834  0.91769580    -1.24500
O1233       O  0.15913749  0.59566751  0.72923587    -0.86800
O1234       O  0.15666759  0.62640133  0.64608149    -0.83800
C1235       C  0.16483447  0.64813152  0.66274098     0.96700
O1236       O  0.18899141  0.65056596  0.67452723    -0.83900
O1237       O  0.24196755  0.63092804  0.69623221    -0.86500
C1238       C  0.24406979  0.61927190  0.73699099     1.01200
O1239       O  0.22823610  0.60116578  0.74850756    -0.79300
O1240       O  0.18888133  0.56548710  0.74770312    -0.79500
C1241       C  0.17074819  0.58138656  0.76045699     1.01100
O1242       O  0.16766458  0.55032637  0.66836974    -0.86800
O1243       O  0.17353762  0.58402736  0.58931093    -0.83900
C1244       C  0.18340915  0.60182863  0.56235457     0.96700
O1245       O  0.19302333  0.62305902  0.58020937    -0.83900
O1246       O  0.24185713  0.60456496  0.60548887    -0.86500
C1247       C  0.25701284  0.58725312  0.62343492     1.01200
O1248       O  0.25216645  0.57669919  0.66408249    -0.79300
O1249       O  0.20967524  0.54393878  0.65616192    -0.79500
C1250       C  0.18611592  0.53598992  0.65252455     1.01100
Cr1251     Cr  0.16642397  0.58966370  0.65895066     1.93700
Cr1252     Cr  0.21505186  0.62541047  0.64186411     1.93200
Cr1253     Cr  0.21858581  0.57333668  0.70180184     1.39100
O1254       O  0.20035091  0.59638080  0.66762463    -1.24500
O1255       O  0.04621986  0.67176740  0.66909941    -0.86800
O1256       O  0.07990053  0.67760096  0.58996583    -0.83800
C1257       C  0.09770407  0.68746434  0.56299281     0.96700
O1258       O  0.11894668  0.69706618  0.58081405    -0.83900
O1259       O  0.10051203  0.74591185  0.60607863    -0.86500
C1260       C  0.08321658  0.76108135  0.62402012     1.01200
O1261       O  0.07264959  0.75623710  0.66465390    -0.79300
O1262       O  0.03985188  0.71376203  0.65678016    -0.79500
C1263       C  0.03188857  0.69020783  0.65320897     1.01100
O1264       O  0.09157800  0.66323158  0.72990583    -0.86800
O1265       O  0.12226035  0.66067489  0.64673816    -0.83900
C1266       C  0.14406881  0.66885346  0.66303578     0.96700
O1267       O  0.14653371  0.69299064  0.67492231    -0.83900
O1268       O  0.12691358  0.74598506  0.69679580    -0.86500
C1269       C  0.11524243  0.74811754  0.73753553     1.01200
O1270       O  0.09712261  0.73230540  0.74907173    -0.79300
O1271       O  0.06141768  0.69299773  0.74834618    -0.79500
C1272       C  0.07731522  0.67486637  0.76111614     1.01100
Cr1273     Cr  0.08555070  0.67049483  0.65962274     1.93700
Cr1274     Cr  0.12134739  0.71908445  0.64242559     1.93200
Cr1275     Cr  0.06927465  0.72266975  0.70239677     1.39100
O1276       O  0.09231015  0.70441066  0.66824212    -1.24500
O1277       O  0.46663446  0.67172199  0.83358188    -0.86800
O1278       O  0.43293758  0.67756471  0.91267350    -0.83800
C1279       C  0.41512026  0.68741350  0.93963836     0.96700
O1280       O  0.39388047  0.69701166  0.92178967    -0.83900
O1281       O  0.41235020  0.74584549  0.89657212    -0.86500
C1282       C  0.42964446  0.76101343  0.87863063     1.01200
O1283       O  0.44018484  0.75618073  0.83796240    -0.79300
O1284       O  0.47298881  0.71373216  0.84582612    -0.79500
C1285       C  0.48095728  0.69018396  0.84943750     1.01100
O1286       O  0.42129401  0.66314367  0.77272961    -0.86800
O1287       O  0.39057365  0.66064848  0.85588127    -0.83900
C1288       C  0.36882159  0.66880289  0.83929154     0.96700
O1289       O  0.36636356  0.69295143  0.82750741    -0.83900
O1290       O  0.38596267  0.74595016  0.80583530    -0.86500
C1291       C  0.39761325  0.74805960  0.76507464     1.01200
O1292       O  0.41571498  0.73222329  0.75352645    -0.79300
O1293       O  0.45144413  0.69291162  0.75427986    -0.79500
C1294       C  0.43556172  0.67476172  0.74151700     1.01100
Cr1295     Cr  0.42730064  0.67044209  0.84301975     1.93700
Cr1296     Cr  0.39150872  0.71903447  0.86016971     1.93200
Cr1297     Cr  0.44357040  0.72260683  0.80020892     1.39100
O1298       O  0.42054805  0.70435612  0.83437965    -1.24500
O1299       O  0.35372985  0.59554109  0.77225611    -0.86800
O1300       O  0.35628330  0.62624678  0.85542057    -0.83800
C1301       C  0.34810101  0.64803929  0.83908270     0.96700
O1302       O  0.32395748  0.65049919  0.82722012    -0.83900
O1303       O  0.27096599  0.63090634  0.80535109    -0.86500
C1304       C  0.26883883  0.61925034  0.76458277     1.01200
O1305       O  0.28464151  0.60111871  0.75303667    -0.79300
O1306       O  0.32394940  0.56539848  0.75376414    -0.79500
C1307       C  0.34208948  0.58128680  0.74102242     1.01100
O1308       O  0.34516688  0.55019932  0.83304553    -0.86800
O1309       O  0.33935092  0.58389814  0.91217438    -0.83900
C1310       C  0.32949387  0.60170429  0.93916129     0.96700
O1311       O  0.31989352  0.62294320  0.92135053    -0.83900
O1312       O  0.27103986  0.60451730  0.89604821    -0.86500
C1313       C  0.25585808  0.58723618  0.87807521     1.01200
O1314       O  0.26069315  0.57667333  0.83742241    -0.79300
O1315       O  0.30315598  0.54385544  0.84529471    -0.79500
C1316       C  0.32670944  0.53588139  0.84889995     1.01100
Cr1317     Cr  0.34645739  0.58953206  0.84252731     1.93700
Cr1318     Cr  0.29786827  0.62533769  0.85972411     1.93200
Cr1319     Cr  0.29426753  0.57327452  0.79969682     1.39100
O1320       O  0.31253704  0.59629865  0.83389029    -1.24500
O1321       O  0.35371611  0.92529152  0.72933162    -0.86800
O1322       O  0.35620574  0.89456749  0.64614302    -0.83800
C1323       C  0.34804760  0.87283147  0.66275529     0.96700
O1324       O  0.32389376  0.87039153  0.67452663    -0.83900
O1325       O  0.27089939  0.89000693  0.69618720    -0.86500
C1326       C  0.26877923  0.90167293  0.73694262     1.01200
O1327       O  0.28460174  0.91979020  0.74850005    -0.79300
O1328       O  0.32396217  0.95546131  0.74779224    -0.79500
C1329       C  0.34209419  0.93955925  0.76055402     1.01100
O1330       O  0.34517999  0.97063554  0.66851720    -0.86800
O1331       O  0.33930506  0.93693793  0.58939877    -0.83900
C1332       C  0.32943664  0.91913160  0.56241397     0.96700
O1333       O  0.31983474  0.89789757  0.58023951    -0.83900
O1334       O  0.27099665  0.91637147  0.60546754    -0.86500
C1335       C  0.25584473  0.93369383  0.62338360     1.01200
O1336       O  0.26068673  0.94425455  0.66404391    -0.79300
O1337       O  0.30317133  0.97701534  0.65623340    -0.79500
C1338       C  0.32672905  0.98496811  0.65264583     1.01100
Cr1339     Cr  0.34642860  0.93130021  0.65904526     1.93700
Cr1340     Cr  0.29781321  0.89553656  0.64186193     1.93200
Cr1341     Cr  0.29426113  0.94761587  0.70183133     1.39100
O1342       O  0.31250345  0.92457233  0.66766773    -1.24500
O1343       O  0.46666726  0.84918973  0.66917023    -0.86800
O1344       O  0.43297628  0.84333419  0.58999562    -0.83800
C1345       C  0.41517032  0.83346671  0.56299534     0.96700
O1346       O  0.39393192  0.82385910  0.58078958    -0.83900
O1347       O  0.41233966  0.77501211  0.60610076    -0.86500
C1348       C  0.42965426  0.75985488  0.62402956     1.01200
O1349       O  0.44025320  0.76471479  0.66464982    -0.79300
O1350       O  0.47303315  0.80719828  0.65681957    -0.79500
C1351       C  0.48099465  0.83075189  0.65325836     1.01100
O1352       O  0.42129891  0.85772413  0.72991070    -0.86800
O1353       O  0.39061472  0.86027591  0.64670104    -0.83900
C1354       C  0.36881485  0.85210775  0.66301369     0.96700
O1355       O  0.36635612  0.82797466  0.67489845    -0.83900
O1356       O  0.38595523  0.77498704  0.69679222    -0.86500
C1357       C  0.39764410  0.77283411  0.73752944     1.01200
O1358       O  0.41580056  0.78861452  0.74908230    -0.79300
O1359       O  0.45146414  0.82796569  0.74839362    -0.79500
C1360       C  0.43554832  0.84608442  0.76114478     1.01100
Cr1361     Cr  0.42732975  0.85045298  0.65964298     1.93700
Cr1362     Cr  0.39152676  0.80186400  0.64241875     1.93200
Cr1363     Cr  0.44362328  0.79828257  0.70241790     1.39100
O1364       O  0.42057330  0.81653617  0.66825631    -1.24500
O1365       O  0.15911656  0.92542006  0.77201791    -0.86800
O1366       O  0.15652140  0.89473472  0.85515935    -0.83800
C1367       C  0.16470335  0.87291798  0.83893188     0.96700
O1368       O  0.18883998  0.87044486  0.82705639    -0.83900
O1369       O  0.24185260  0.89001908  0.80521524    -0.86500
C1370       C  0.24400001  0.90169019  0.76447664     1.01200
O1371       O  0.22820634  0.91982999  0.75292425    -0.79300
O1372       O  0.18890855  0.95555419  0.75361945    -0.79500
C1373       C  0.17077318  0.93966464  0.74082218     1.01100
O1374       O  0.16768523  0.97075910  0.83284506    -0.86800
O1375       O  0.17348624  0.93706542  0.91197839    -0.83900
C1376       C  0.18334195  0.91925665  0.93896459     0.96700
O1377       O  0.19293547  0.89801503  0.92115317    -0.83900
O1378       O  0.24179858  0.91641210  0.89593920    -0.86500
C1379       C  0.25698059  0.93369565  0.87801816     1.01200
O1380       O  0.25214714  0.94426509  0.83737636    -0.79300
O1381       O  0.20969236  0.97708732  0.84521754    -0.79500
C1382       C  0.18614065  0.98506856  0.84876720     1.01100
Cr1383     Cr  0.16637920  0.93143312  0.84230706     1.93700
Cr1384     Cr  0.21495419  0.89560406  0.85956424     1.93200
Cr1385     Cr  0.21857923  0.94767050  0.79959976     1.39100
O1386       O  0.20029752  0.92464808  0.83372805    -1.24500
O1387       O  0.04619424  0.84922918  0.83358218    -0.86800
O1388       O  0.07989503  0.84336714  0.91271424    -0.83800
C1389       C  0.09771652  0.83351869  0.93968866     0.96700
O1390       O  0.11896202  0.82393806  0.92184993    -0.83900
O1391       O  0.10051603  0.77509466  0.89657192    -0.86500
C1392       C  0.08320529  0.75993002  0.87862847     1.01200
O1393       O  0.07263641  0.76476503  0.83796885    -0.79300
O1394       O  0.03983582  0.80722347  0.84579160    -0.79500
C1395       C  0.03187121  0.83077314  0.84942462     1.01100
O1396       O  0.09154363  0.85780064  0.77281500    -0.86800
O1397       O  0.12227181  0.86028450  0.85601615    -0.83900
C1398       C  0.14399637  0.85214336  0.83930469     0.96700
O1399       O  0.14644647  0.82799331  0.82752654    -0.83900
O1400       O  0.12688142  0.77500832  0.80586846    -0.86500
C1401       C  0.11522955  0.77288861  0.76509574     1.01200
O1402       O  0.09709762  0.78869403  0.75354343    -0.79300
O1403       O  0.06139816  0.82802887  0.75426737    -0.79500
C1404       C  0.07728831  0.84617690  0.74155659     1.01100
Cr1405     Cr  0.08553398  0.85049951  0.84308296     1.93700
Cr1406     Cr  0.12133176  0.80191527  0.86020474     1.93200
Cr1407     Cr  0.06925290  0.79833285  0.80020388     1.39100
O1408       O  0.09228154  0.81658424  0.83441074    -1.24500
O1409       O  0.60372364  0.17538897  0.47990891    -0.86800
O1410       O  0.60628206  0.14471053  0.39672075    -0.83800
C1411       C  0.59810924  0.12290673  0.41299595     0.96700
O1412       O  0.57397367  0.12044049  0.42487653    -0.83900
O1413       O  0.52097563  0.14003056  0.44676952    -0.86500
C1414       C  0.51883125  0.15170703  0.48751580     1.01200
O1415       O  0.53461937  0.16985557  0.49906977    -0.79300
O1416       O  0.57395455  0.20554251  0.99836570    -0.79500
C1417       C  0.59208170  0.18963747  0.01113062     1.01100
O1418       O  0.59516529  0.22074284  0.41913657    -0.86800
O1419       O  0.58933178  0.18705290  0.33998438    -0.83900
C1420       C  0.57947230  0.16924742  0.31298254     0.96700
O1421       O  0.56985975  0.14801328  0.33077589    -0.83900
O1422       O  0.52101169  0.16642026  0.35606964    -0.86500
C1423       C  0.50584407  0.18371663  0.37400836     1.01200
O1424       O  0.51069141  0.19429463  0.41464616    -0.79300
O1425       O  0.55316070  0.22708827  0.40678850    -0.79500
C1426       C  0.57671464  0.23505766  0.40321906     1.01100
Cr1427     Cr  0.59644815  0.18141335  0.40963632     1.93700
Cr1428     Cr  0.54785890  0.14560581  0.39239749     1.93200
Cr1429     Cr  0.54426619  0.19768160  0.45240035     1.39100
O1430       O  0.56252903  0.17464587  0.41824122    -1.24500
O1431       O  0.71664556  0.09923619  0.41845199    -0.86800
O1432       O  0.68294177  0.09339581  0.33932411    -0.83800
C1433       C  0.66512548  0.08354784  0.31233050     0.96700
O1434       O  0.64388464  0.07395440  0.33015027    -0.83900
O1435       O  0.66236187  0.02512020  0.35538035    -0.86500
C1436       C  0.67965320  0.00994715  0.37334875     1.01200
O1437       O  0.69019428  0.01477526  0.41403661    -0.79300
O1438       O  0.72300270  0.05722392  0.40623586    -0.79500
C1439       C  0.73096974  0.08077218  0.40262129     1.01100
O1440       O  0.67130500  0.10781401  0.47924862    -0.86800
O1441       O  0.64056693  0.11029973  0.39606904    -0.83900
C1442       C  0.61882987  0.10214313  0.41269290     0.96700
O1443       O  0.61638108  0.07799084  0.42443800    -0.83900
O1444       O  0.63597384  0.02500557  0.44607254    -0.86500
C1445       C  0.64761283  0.02289727  0.48686089     1.01200
O1446       O  0.66572291  0.03872434  0.49844321    -0.79300
O1447       O  0.70145347  0.07804275  0.99775015    -0.79500
C1448       C  0.68557245  0.09619580  0.01048445     1.01100
Cr1449     Cr  0.67730598  0.10051510  0.40896910     1.93700
Cr1450     Cr  0.64151967  0.05192371  0.39176443     1.93200
Cr1451     Cr  0.69358123  0.04834718  0.45180549     1.39100
O1452       O  0.67055923  0.06659990  0.41759906    -1.24500
O1453       O  0.60372566  0.34562630  0.02279163    -0.86800
O1454       O  0.60621939  0.37637802  0.10594718    -0.83800
C1455       C  0.59804777  0.39810381  0.08928455     0.96700
O1456       O  0.57388696  0.40053620  0.07753047    -0.83900
O1457       O  0.52090555  0.38092259  0.05589389    -0.86500
C1458       C  0.51879902  0.36927626  0.01511805     1.01200
O1459       O  0.53462673  0.35116676  0.00357124    -0.79300
O1460       O  0.57396067  0.31546526  0.50430658    -0.79500
C1461       C  0.59210099  0.33135441  0.49156153     1.01100
O1462       O  0.59518877  0.30029547  0.08362712    -0.86800
O1463       O  0.58933928  0.33400269  0.16271890    -0.83900
C1464       C  0.57947147  0.35180806  0.18968991     0.96700
O1465       O  0.56988176  0.37304730  0.17184828    -0.83900
O1466       O  0.52103546  0.35456183  0.14661504    -0.86500
C1467       C  0.50586708  0.33725643  0.12866743     1.01200
O1468       O  0.51069663  0.32670556  0.08799719    -0.79300
O1469       O  0.55317588  0.29392140  0.09583582    -0.79500
C1470       C  0.57673347  0.28596476  0.09945908     1.04300
Cr1471     Cr  0.59644776  0.33963374  0.09307539     1.93700
Cr1472     Cr  0.54783470  0.37539745  0.11022199     1.93200
Cr1473     Cr  0.54426906  0.32332771  0.05023857     1.39100
O1474       O  0.56252087  0.34636175  0.08442674    -1.24500
O1475       O  0.71664774  0.42177309  0.08282619    -0.86800
O1476       O  0.68297116  0.42763675  0.16197999    -0.83800
C1477       C  0.66516205  0.43750157  0.18895217     0.96700
O1478       O  0.64392088  0.44710575  0.17113072    -0.83900
O1479       O  0.66230889  0.99595663  0.14583418    -0.86500
C1480       C  0.67962950  0.01110794  0.12793905     1.01200
O1481       O  0.69023111  0.00624353  0.08734045    -0.79300
O1482       O  0.72301109  0.46376066  0.09521439    -0.79500
C1483       C  0.73097442  0.44020671  0.09876709     1.01100
O1484       O  0.67127602  0.41323398  0.02204851    -0.86800
O1485       O  0.64061915  0.41067352  0.10524767    -0.83900
C1486       C  0.61880672  0.41883241  0.08895055     0.96700
O1487       O  0.61633379  0.44296061  0.07702475    -0.83900
O1488       O  0.63592334  0.49596504  0.05510664    -0.86500
C1489       C  0.64762425  0.49812224  0.01440017     1.01200
O1490       O  0.66577390  0.48233555  0.00287756    -0.79300
O1491       O  0.70143672  0.44299439  0.50360661    -0.79500
C1492       C  0.68552288  0.42487404  0.49083254     1.01100
Cr1493     Cr  0.67731817  0.42050815  0.09232639     1.93700
Cr1494     Cr  0.64150270  0.46909200  0.10949856     1.93200
Cr1495     Cr  0.69359857  0.47267559  0.04957677     1.39100
O1496       O  0.67055146  0.45442255  0.08370383    -1.24500
O1497       O  0.79622362  0.09918061  0.08299551    -0.86800
O1498       O  0.82990788  0.09331839  0.16216849    -0.83800
C1499       C  0.84771230  0.08345018  0.18916203     0.96700
O1500       O  0.86895356  0.07384538  0.17136157    -0.83900
O1501       O  0.85053182  0.02500319  0.14602915    -0.86500
C1502       C  0.83321629  0.00984759  0.12808551     1.01200
O1503       O  0.82262760  0.01470312  0.08745703    -0.79300
O1504       O  0.78984906  0.05718912  0.09530250    -0.79500
C1505       C  0.78189044  0.08074429  0.09887330     1.01100
O1506       O  0.84158693  0.10771001  0.02226386    -0.86800
O1507       O  0.87227503  0.11024525  0.10549051    -0.83900
C1508       C  0.89406505  0.10208032  0.08911945     0.96700
O1509       O  0.89652358  0.07794318  0.07723442    -0.83900
O1510       O  0.87691077  0.02495213  0.05533722    -0.86500
C1511       C  0.86522357  0.02281183  0.01459513     1.01200
O1512       O  0.84708849  0.03861344  0.00305081    -0.79300
O1513       O  0.81141801  0.07795533  0.50375667    -0.79500
C1514       C  0.82732482  0.09608152  0.49102244     1.01100
Cr1515     Cr  0.83555851  0.10043699  0.09253073     1.93700
Cr1516     Cr  0.87135230  0.05184193  0.10971978     1.93200
Cr1517     Cr  0.81926030  0.04827163  0.04970992     1.39100
O1518       O  0.84230860  0.06651990  0.08389271    -1.24500
O1519       O  0.90912602  0.17529919  0.02271962    -0.86800
O1520       O  0.90664374  0.14456678  0.10585821    -0.83800
C1521       C  0.91481803  0.12281794  0.08930290     0.96700
O1522       O  0.93897248  0.12037920  0.07752980    -0.83900
O1523       O  0.99195694  0.14002016  0.05583458    -0.86500
C1524       C  0.99405734  0.15167424  0.01507310     1.01200
O1525       O  0.97821440  0.16977382  0.00353038    -0.79300
O1526       O  0.93887124  0.20547401  0.50429779    -0.79500
C1527       C  0.92074002  0.18957526  0.49151649     1.01100
O1528       O  0.91767073  0.22063806  0.08360255    -0.86800
O1529       O  0.92353128  0.18693322  0.16266798    -0.83900
C1530       C  0.93340156  0.16913115  0.18964178     0.96700
O1531       O  0.94302207  0.14790339  0.17180420    -0.83900
O1532       O  0.49185001  0.16639995  0.14657262    -0.86500
C1533       C  0.50700807  0.18370137  0.12862866     1.01200
O1534       O  0.50216406  0.19424057  0.08796245    -0.79300
O1535       O  0.95968653  0.22701300  0.09584774    -0.79500
C1536       C  0.93613002  0.23496921  0.09946045     1.01100
Cr1537     Cr  0.91641635  0.18130092  0.09301375     1.93700
Cr1538     Cr  0.96504337  0.14554574  0.11017865     1.93200
Cr1539     Cr  0.96857864  0.19761045  0.05022112     1.39100
O1540       O  0.95034128  0.17457319  0.08438511    -1.24500
O1541       O  0.90913678  0.34555263  0.47991056    -0.86800
O1542       O  0.90655931  0.37623534  0.39674508    -0.83800
C1543       C  0.91473235  0.39803483  0.41307626     0.96700
O1544       O  0.93887288  0.40050457  0.42496230    -0.83900
O1545       O  0.99188246  0.38092667  0.44680752    -0.86500
C1546       C  0.99402537  0.36925975  0.48755030     1.01200
O1547       O  0.97823150  0.35112414  0.49908445    -0.79300
O1548       O  0.93892855  0.31541635  0.99836777    -0.79500
C1549       C  0.92078767  0.33130431  0.01112976     1.01100
O1550       O  0.91769189  0.30020826  0.41911213    -0.86800
O1551       O  0.92350963  0.33389224  0.33997564    -0.83900
C1552       C  0.93336428  0.35170125  0.31300615     0.96700
O1553       O  0.94294750  0.37294688  0.33083305    -0.83900
O1554       O  0.49181214  0.35454033  0.35608620    -0.86500
C1555       C  0.50699167  0.33724663  0.37401182     1.01200
O1556       O  0.50216156  0.32667443  0.41464872    -0.79300
O1557       O  0.95969534  0.29386363  0.40679456    -0.79500
C1558       C  0.93614092  0.28589042  0.40321853     1.01100
Cr1559     Cr  0.91639969  0.33953332  0.40963078     1.93700
Cr1560     Cr  0.96497613  0.37535033  0.39244326     1.93200
Cr1561     Cr  0.96859724  0.32328255  0.45240874     1.39100
O1562       O  0.95031903  0.34630744  0.41825598    -1.24500
O1563       O  0.79618970  0.42170006  0.41845890    -0.86800
O1564       O  0.82989514  0.42753789  0.33938251    -0.83800
C1565       C  0.84771263  0.43738812  0.31243059     0.96700
O1566       O  0.86895343  0.44697925  0.33029383    -0.83900
O1567       O  0.85048500  0.99582304  0.35552406    -0.86500
C1568       C  0.83319231  0.01099800  0.37346980     1.01200
O1569       O  0.82263969  0.00616493  0.41412502    -0.79300
O1570       O  0.78983428  0.46370991  0.40624713    -0.79500
C1571       C  0.78186618  0.44016142  0.40261336     1.01100
O1572       O  0.84153076  0.41313078  0.47931970    -0.86800
O1573       O  0.87226326  0.41063225  0.39618660    -0.83900
C1574       C  0.89400652  0.41879195  0.41281920     0.96700
O1575       O  0.89645656  0.44294257  0.42460187    -0.83900
O1576       O  0.87686644  0.49592728  0.44626337    -0.86500
C1577       C  0.86522331  0.49804048  0.48702892     1.01200
O1578       O  0.84710596  0.48222233  0.49856414    -0.79300
O1579       O  0.81138338  0.44290496  0.99779023    -0.79500
C1580       C  0.82726786  0.42475639  0.01054178     1.01100
Cr1581     Cr  0.83552826  0.42042190  0.40903429     1.93700
Cr1582     Cr  0.87131870  0.46901206  0.39192203     1.93200
Cr1583     Cr  0.81925287  0.47259466  0.45187077     1.39100
O1584       O  0.84227689  0.45433838  0.41769561    -1.24500
O1585       O  0.65913755  0.09566752  0.22923594    -0.86800
O1586       O  0.65666753  0.12640137  0.14608152    -0.83800
C1587       C  0.66483440  0.14813155  0.16274095     0.96700
O1588       O  0.68899136  0.15056607  0.17452704    -0.83900
O1589       O  0.74196748  0.13092801  0.19623220    -0.86500
C1590       C  0.74406975  0.11927187  0.23699100     1.01200
O1591       O  0.72823606  0.10116576  0.24850769    -0.79300
O1592       O  0.68888130  0.06548702  0.24770326    -0.79500
C1593       C  0.67074819  0.08138652  0.26045707     1.01100
O1594       O  0.66766458  0.05032641  0.16836975    -0.86800
O1595       O  0.67353760  0.08402747  0.08931083    -0.83900
C1596       C  0.68340921  0.10182870  0.06235450     0.96700
O1597       O  0.69302338  0.12305910  0.08020926    -0.83900
O1598       O  0.74185715  0.10456499  0.10548897    -0.86500
C1599       C  0.75701281  0.08725312  0.12343500     1.01200
O1600       O  0.75216640  0.07669915  0.16408259    -0.79300
O1601       O  0.70967524  0.04393872  0.15616215    -0.79500
C1602       C  0.68611591  0.03598991  0.15252470     1.01100
Cr1603     Cr  0.66642393  0.08966376  0.15895062     1.93700
Cr1604     Cr  0.71505183  0.12541053  0.14186406     1.93200
Cr1605     Cr  0.71858576  0.07333665  0.20180198     1.39100
O1606       O  0.70035087  0.09638084  0.16762464    -1.24500
O1607       O  0.54621979  0.17176742  0.16909944    -0.86800
O1608       O  0.57990049  0.17760091  0.08996574    -0.83800
C1609       C  0.59770404  0.18746429  0.06299273     0.96700
O1610       O  0.61894662  0.19706623  0.08081392    -0.83900
O1611       O  0.60051198  0.24591182  0.10607871    -0.86500
C1612       C  0.58321652  0.26108135  0.12402020     1.01200
O1613       O  0.57264955  0.25623717  0.16465400    -0.79300
O1614       O  0.53985181  0.21376207  0.15678033    -0.79500
C1615       C  0.53188851  0.19020788  0.15320901     1.01100
O1616       O  0.59157787  0.16323159  0.22990575    -0.86800
O1617       O  0.62226027  0.16067485  0.14673804    -0.83900
C1618       C  0.64406874  0.16885343  0.16303578     0.96700
O1619       O  0.64653367  0.19299060  0.17492219    -0.83900
O1620       O  0.62691361  0.24598499  0.19679580    -0.86500
C1621       C  0.61524242  0.24811756  0.23753550     1.01200
O1622       O  0.59712253  0.23230551  0.24907173    -0.79300
O1623       O  0.56141765  0.19299785  0.24834628    -0.79500
C1624       C  0.57731519  0.17486646  0.26111614     1.01100
Cr1625     Cr  0.58555063  0.17049480  0.15962265     1.93700
Cr1626     Cr  0.62134741  0.21908443  0.14242552     1.93200
Cr1627     Cr  0.56927461  0.22266983  0.20239684     1.39100
O1628       O  0.59231013  0.20441066  0.16824210    -1.24500
O1629       O  0.96663452  0.17172198  0.33358175    -0.86800
O1630       O  0.93293765  0.17756465  0.41267343    -0.83800
C1631       C  0.91512030  0.18741339  0.43963834     0.96700
O1632       O  0.89388057  0.19701165  0.42178964    -0.83900
O1633       O  0.91235026  0.24584552  0.39657213    -0.86500
C1634       C  0.92964448  0.26101342  0.37863057     1.01200
O1635       O  0.94018484  0.25618071  0.33796227    -0.79300
O1636       O  0.97298878  0.21373213  0.34582621    -0.79500
C1637       C  0.98095729  0.19018396  0.34943754     1.01100
O1638       O  0.92129406  0.16314357  0.27272955    -0.86800
O1639       O  0.89057368  0.16064839  0.35588116    -0.83900
C1640       C  0.86882158  0.16880290  0.33929165     0.96700
O1641       O  0.86636361  0.19295146  0.32750760    -0.83900
O1642       O  0.88596264  0.24595023  0.30583530    -0.86500
C1643       C  0.89761322  0.24805963  0.26507463     1.01200
O1644       O  0.91571499  0.23222332  0.25352647    -0.79300
O1645       O  0.95144413  0.19291157  0.25427985    -0.79500
C1646       C  0.93556171  0.17476170  0.24151696     1.01100
Cr1647     Cr  0.92730070  0.17044204  0.34301964     1.93700
Cr1648     Cr  0.89150881  0.21903453  0.36016976     1.93200
Cr1649     Cr  0.94357045  0.22260681  0.30020885     1.39100
O1650       O  0.92054811  0.20435611  0.33437957    -1.24500
O1651       O  0.85372979  0.09554104  0.27225616    -0.86800
O1652       O  0.85628322  0.12624678  0.35542057    -0.83800
C1653       C  0.84810095  0.14803931  0.33908276     0.96700
O1654       O  0.82395743  0.15049919  0.32721998    -0.83900
O1655       O  0.77096594  0.13090634  0.30535102    -0.86500
C1656       C  0.76883880  0.11925032  0.26458271     1.01200
O1657       O  0.78464147  0.10111869  0.25303659    -0.79300
O1658       O  0.82394939  0.06539843  0.25376398    -0.79500
C1659       C  0.84208947  0.08128677  0.24102235     1.01100
O1660       O  0.84516682  0.05019933  0.33304567    -0.86800
O1661       O  0.83935088  0.08389810  0.41217452    -0.83900
C1662       C  0.82949385  0.10170427  0.43916140     0.96700
O1663       O  0.81989346  0.12294318  0.42135059    -0.83900
O1664       O  0.77103980  0.10451731  0.39604822    -0.86500
C1665       C  0.75585806  0.08723615  0.37807524     1.01200
O1666       O  0.76069314  0.07667327  0.33742245    -0.79300
O1667       O  0.80315594  0.04385549  0.34529480    -0.79500
C1668       C  0.82670938  0.03588140  0.34890003     1.01100
Cr1669     Cr  0.84645732  0.08953204  0.34252743     1.93700
Cr1670     Cr  0.79786821  0.12533772  0.35972407     1.93200
Cr1671     Cr  0.79426754  0.07327450  0.29969677     1.39100
O1672       O  0.81253699  0.09629865  0.33389033    -1.24500
O1673       O  0.85371602  0.42529151  0.22933150    -0.86800
O1674       O  0.85620569  0.39456742  0.14614284    -0.83800
C1675       C  0.84804762  0.37283143  0.16275518     0.96700
O1676       O  0.82389381  0.37039149  0.17452677    -0.83900
O1677       O  0.77089947  0.39000683  0.19618735    -0.86500
C1678       C  0.76877925  0.40167292  0.23694268     1.01200
O1679       O  0.78460176  0.41979021  0.24849999    -0.79300
O1680       O  0.82396208  0.45546131  0.24779224    -0.79500
C1681       C  0.84209415  0.43955926  0.26055391     1.01100
O1682       O  0.84517996  0.47063549  0.16851711    -0.86800
O1683       O  0.83930501  0.43693788  0.08939884    -0.83900
C1684       C  0.82943667  0.41913153  0.06241402     0.96700
O1685       O  0.81983471  0.39789752  0.08023951    -0.83900
O1686       O  0.77099661  0.41637139  0.10546765    -0.86500
C1687       C  0.75584473  0.43369385  0.12338349     1.01200
O1688       O  0.76068667  0.44425459  0.16404381    -0.79300
O1689       O  0.80317130  0.47701534  0.15623326    -0.79500
C1690       C  0.82672904  0.48496810  0.15264580     1.01100
Cr1691     Cr  0.84642854  0.43130016  0.15904518     1.93700
Cr1692     Cr  0.79781325  0.39553651  0.14186205     1.93200
Cr1693     Cr  0.79426108  0.44761591  0.20183122     1.39100
O1694       O  0.81250341  0.42457233  0.16766767    -1.24500
O1695       O  0.96666723  0.34918971  0.16917040    -0.86800
O1696       O  0.93297628  0.34333428  0.08999563    -0.83800
C1697       C  0.91517036  0.33346670  0.06299534     0.96700
O1698       O  0.89393196  0.32385909  0.08078957    -0.83900
O1699       O  0.91233971  0.27501208  0.10610058    -0.86500
C1700       C  0.92965428  0.25985484  0.12402947     1.01200
O1701       O  0.94025316  0.26471474  0.16464974    -0.79300
O1702       O  0.97303307  0.30719829  0.15681938    -0.79500
C1703       C  0.98099457  0.33075190  0.15325825     1.01100
O1704       O  0.92129882  0.35772410  0.22991069    -0.86800
O1705       O  0.89061471  0.36027589  0.14670094    -0.83900
C1706       C  0.86881483  0.35210769  0.16301356     0.96700
O1707       O  0.86635608  0.32797461  0.17489825    -0.83900
O1708       O  0.88595515  0.27498700  0.19679215    -0.86500
C1709       C  0.89764403  0.27283411  0.23752936     1.01200
O1710       O  0.91580047  0.28861456  0.24908214    -0.79300
O1711       O  0.95146404  0.32796563  0.24839365    -0.79500
C1712       C  0.93554827  0.34608442  0.26114476     1.01100
Cr1713     Cr  0.92732971  0.35045302  0.15964303     1.93700
Cr1714     Cr  0.89152672  0.30186394  0.14241862     1.93200
Cr1715     Cr  0.94362322  0.29828255  0.20241777     1.39100
O1716       O  0.92057325  0.31653617  0.16825622    -1.24500
O1717       O  0.65911666  0.42541998  0.27201792    -0.86800
O1718       O  0.65652146  0.39473468  0.35515952    -0.83800
C1719       C  0.66470331  0.37291796  0.33893195     0.96700
O1720       O  0.68883994  0.37044482  0.32705633    -0.83900
O1721       O  0.74185256  0.39001911  0.30521528    -0.86500
C1722       C  0.74399999  0.40169019  0.26447663     1.01200
O1723       O  0.72820629  0.41982993  0.25292411    -0.79300
O1724       O  0.68890858  0.45555413  0.25361929    -0.79500
C1725       C  0.67077318  0.43966460  0.24082215     1.01100
O1726       O  0.66768530  0.47075904  0.33284504    -0.86800
O1727       O  0.67348623  0.43706551  0.41197830    -0.83900
C1728       C  0.68334191  0.41925672  0.43896452     0.96700
O1729       O  0.69293539  0.39801510  0.42115308    -0.83900
O1730       O  0.74179863  0.41641207  0.39593928    -0.86500
C1731       C  0.75698058  0.43369564  0.37801818     1.01200
O1732       O  0.75214711  0.44426503  0.33737631    -0.79300
O1733       O  0.70969240  0.47708727  0.34521759    -0.79500
C1734       C  0.68614067  0.48506853  0.34876716     1.01100
Cr1735     Cr  0.66637928  0.43143307  0.34230701     1.93700
Cr1736     Cr  0.71495417  0.39560403  0.35956430     1.93200
Cr1737     Cr  0.71857923  0.44767044  0.29959966     1.39100
O1738       O  0.70029756  0.42464803  0.33372800    -1.24500
O1739       O  0.54619419  0.34922912  0.33358201    -0.86800
O1740       O  0.57989492  0.34336710  0.41271412    -0.83800
C1741       C  0.59771645  0.33351873  0.43968856     0.96700
O1742       O  0.61896196  0.32393813  0.42184980    -0.83900
O1743       O  0.60051607  0.27509458  0.39657184    -0.86500
C1744       C  0.58320532  0.25992997  0.37862845     1.01200
O1745       O  0.57263646  0.26476498  0.33796879    -0.79300
O1746       O  0.53983573  0.30722341  0.34579158    -0.79500
C1747       C  0.53187118  0.33077310  0.34942466     1.01100
O1748       O  0.59154369  0.35780058  0.27281489    -0.86800
O1749       O  0.62227174  0.36028449  0.35601624    -0.83900
C1750       C  0.64399631  0.35214336  0.33930471     0.96700
O1751       O  0.64644641  0.32799333  0.32752656    -0.83900
O1752       O  0.62688151  0.27500828  0.30586847    -0.86500
C1753       C  0.61522964  0.27288861  0.26509574     1.01200
O1754       O  0.59709768  0.28869405  0.25354356    -0.79300
O1755       O  0.56139809  0.32802892  0.25426736    -0.79500
C1756       C  0.57728826  0.34617695  0.24155655     1.01100
Cr1757     Cr  0.58553393  0.35049947  0.34308284     1.93700
Cr1758     Cr  0.62133173  0.30191527  0.36020467     1.93200
Cr1759     Cr  0.56925286  0.29833283  0.30020389     1.39100
O1760       O  0.59228149  0.31658421  0.33441068    -1.24500
O1761       O  0.60372355  0.17538890  0.97990889    -0.86800
O1762       O  0.60628208  0.14471052  0.89672089    -0.83800
C1763       C  0.59810927  0.12290671  0.91299604     0.96700
O1764       O  0.57397371  0.12044048  0.92487668    -0.83900
O1765       O  0.52097565  0.14003053  0.94676952    -0.86500
C1766       C  0.51883128  0.15170699  0.98751579     1.01200
O1767       O  0.53461938  0.16985559  0.99906965    -0.79300
O1768       O  0.57395456  0.20554250  0.49836571    -0.79500
C1769       C  0.59208175  0.18963750  0.51113064     1.01100
O1770       O  0.59516529  0.22074281  0.91913648    -0.86800
O1771       O  0.58933184  0.18705285  0.83998436    -0.83900
C1772       C  0.57947228  0.16924740  0.81298256     0.96700
O1773       O  0.56985968  0.14801329  0.83077593    -0.83900
O1774       O  0.52101170  0.16642021  0.85606969    -0.86500
C1775       C  0.50584411  0.18371663  0.87400833     1.01200
O1776       O  0.51069146  0.19429469  0.91464605    -0.79300
O1777       O  0.55316068  0.22708832  0.90678857    -0.79500
C1778       C  0.57671463  0.23505766  0.90321906     1.01100
Cr1779     Cr  0.59644816  0.18141333  0.90963634     1.93700
Cr1780     Cr  0.54785892  0.14560580  0.89239759     1.93200
Cr1781     Cr  0.54426619  0.19768166  0.95240027     1.39100
O1782       O  0.56252904  0.17464591  0.91824116    -1.24500
O1783       O  0.71664559  0.09923627  0.91845179    -0.86800
O1784       O  0.68294180  0.09339584  0.83932400    -0.83800
C1785       C  0.66512551  0.08354780  0.81233047     0.96700
O1786       O  0.64388469  0.07395438  0.83015032    -0.83900
O1787       O  0.66236189  0.02512022  0.85538049    -0.86500
C1788       C  0.67965322  0.00994717  0.87334888     1.01200
O1789       O  0.69019431  0.01477525  0.91403672    -0.79300
O1790       O  0.72300274  0.05722395  0.90623602    -0.79500
C1791       C  0.73096976  0.08077220  0.90262123     1.01100
O1792       O  0.67130504  0.10781403  0.97924861    -0.86800
O1793       O  0.64056694  0.11029973  0.89606886    -0.83900
C1794       C  0.61882989  0.10214311  0.91269280     0.96700
O1795       O  0.61638110  0.07799083  0.92443791    -0.83900
O1796       O  0.63597387  0.02500553  0.94607255    -0.86500
C1797       C  0.64761283  0.02289726  0.98686092     1.01200
O1798       O  0.66572292  0.03872432  0.99844321    -0.79300
O1799       O  0.70145345  0.07804276  0.49775008    -0.79500
C1800       C  0.68557241  0.09619579  0.51048445     1.01100
Cr1801     Cr  0.67730600  0.10051517  0.90896899     1.93700
Cr1802     Cr  0.64151970  0.05192370  0.89176449     1.93200
Cr1803     Cr  0.69358124  0.04834719  0.95180557     1.39100
O1804       O  0.67055926  0.06659994  0.91759907    -1.24500
O1805       O  0.60372568  0.34562628  0.52279158    -0.86800
O1806       O  0.60621942  0.37637800  0.60594729    -0.83800
C1807       C  0.59804781  0.39810378  0.58928457     0.96700
O1808       O  0.57388701  0.40053619  0.57753048    -0.83900
O1809       O  0.52090550  0.38092259  0.55589392    -0.86500
C1810       C  0.51879899  0.36927626  0.51511809     1.01200
O1811       O  0.53462673  0.35116680  0.50357135    -0.79300
O1812       O  0.57396073  0.31546521  0.00430664    -0.79500
C1813       C  0.59210102  0.33135440  0.99156159     1.01100
O1814       O  0.59518875  0.30029546  0.58362700    -0.86800
O1815       O  0.58933930  0.33400266  0.66271891    -0.83900
C1816       C  0.57947151  0.35180804  0.68968993     0.96700
O1817       O  0.56988178  0.37304728  0.67184829    -0.83900
O1818       O  0.52103549  0.35456185  0.64661514    -0.86500
C1819       C  0.50586710  0.33725644  0.62866761     1.01200
O1820       O  0.51069662  0.32670559  0.58799735    -0.79300
O1821       O  0.55317585  0.29392139  0.59583571    -0.79500
C1822       C  0.57673345  0.28596475  0.59945894     1.04300
Cr1823     Cr  0.59644779  0.33963372  0.59307541     1.93700
Cr1824     Cr  0.54783472  0.37539744  0.61022197     1.93200
Cr1825     Cr  0.54426902  0.32332777  0.55023864     1.39100
O1826       O  0.56252088  0.34636175  0.58442681    -1.24500
O1827       O  0.71664775  0.42177315  0.58282612    -0.86800
O1828       O  0.68297122  0.42763687  0.66197996    -0.83800
C1829       C  0.66516206  0.43750161  0.68895214     0.96700
O1830       O  0.64392087  0.44710578  0.67113063    -0.83900
O1831       O  0.66230891  0.99595663  0.64583403    -0.86500
C1832       C  0.67962956  0.01110792  0.62793894     1.01200
O1833       O  0.69023119  0.00624350  0.58734038    -0.79300
O1834       O  0.72301109  0.46376069  0.59521446    -0.79500
C1835       C  0.73097440  0.44020672  0.59876721     1.01100
O1836       O  0.67127607  0.41323397  0.52204849    -0.86800
O1837       O  0.64061918  0.41067351  0.60524783    -0.83900
C1838       C  0.61880675  0.41883239  0.58895065     0.96700
O1839       O  0.61633378  0.44296061  0.57702480    -0.83900
O1840       O  0.63592334  0.49596512  0.55510650    -0.86500
C1841       C  0.64762422  0.49812225  0.51440000     1.01200
O1842       O  0.66577387  0.48233555  0.50287742    -0.79300
O1843       O  0.70143667  0.44299440  0.00360670    -0.79500
C1844       C  0.68552284  0.42487405  0.99083260     1.01100
Cr1845     Cr  0.67731820  0.42050817  0.59232644     1.93700
Cr1846     Cr  0.64150266  0.46909208  0.60949846     1.93200
Cr1847     Cr  0.69359859  0.47267561  0.54957669     1.39100
O1848       O  0.67055145  0.45442259  0.58370380    -1.24500
O1849       O  0.79622366  0.09918063  0.58299562    -0.86800
O1850       O  0.82990785  0.09331841  0.66216860    -0.83800
C1851       C  0.84771226  0.08345017  0.68916212     0.96700
O1852       O  0.86895350  0.07384534  0.67136170    -0.83900
O1853       O  0.85053183  0.02500317  0.64602927    -0.86500
C1854       C  0.83321631  0.00984760  0.62808556     1.01200
O1855       O  0.82262765  0.01470317  0.58745707    -0.79300
O1856       O  0.78984911  0.05718913  0.59530262    -0.79500
C1857       C  0.78189047  0.08074433  0.59887329     1.01100
O1858       O  0.84158696  0.10770999  0.52226395    -0.86800
O1859       O  0.87227501  0.11024526  0.60549043    -0.83900
C1860       C  0.89406505  0.10208031  0.58911950     0.96700
O1861       O  0.89652361  0.07794314  0.57723461    -0.83900
O1862       O  0.87691070  0.02495210  0.55533738    -0.86500
C1863       C  0.86522357  0.02281183  0.51459521     1.01200
O1864       O  0.84708850  0.03861345  0.50305087    -0.79300
O1865       O  0.81141799  0.07795533  0.00375656    -0.79500
C1866       C  0.82732480  0.09608150  0.99102232     1.01100
Cr1867     Cr  0.83555852  0.10043698  0.59253082     1.93700
Cr1868     Cr  0.87135231  0.05184191  0.60971994     1.93200
Cr1869     Cr  0.81926033  0.04827164  0.54971004     1.39100
O1870       O  0.84230863  0.06651989  0.58389286    -1.24500
O1871       O  0.90912605  0.17529919  0.52271972    -0.86800
O1872       O  0.90664378  0.14456675  0.60585833    -0.83800
C1873       C  0.91481804  0.12281792  0.58930293     0.96700
O1874       O  0.93897249  0.12037917  0.57752982    -0.83900
O1875       O  0.99195698  0.14002030  0.55583457    -0.86500
C1876       C  0.99405737  0.15167438  0.51507311     1.01200
O1877       O  0.97821445  0.16977398  0.50353036    -0.79300
O1878       O  0.93887123  0.20547400  0.00429790    -0.79500
C1879       C  0.92074001  0.18957527  0.99151647     1.01100
O1880       O  0.91767069  0.22063802  0.58360264    -0.86800
O1881       O  0.92353133  0.18693319  0.66266799    -0.83900
C1882       C  0.93340158  0.16913110  0.68964180     0.96700
O1883       O  0.94302212  0.14790336  0.67180420    -0.83900
O1884       O  0.49185003  0.16639993  0.64657263    -0.86500
C1885       C  0.50700807  0.18370136  0.62862864     1.01200
O1886       O  0.50216401  0.19424061  0.58796248    -0.79300
O1887       O  0.95968649  0.22701306  0.59584760    -0.79500
C1888       C  0.93612999  0.23496921  0.59946047     1.01100
Cr1889     Cr  0.91641638  0.18130090  0.59301384     1.93700
Cr1890     Cr  0.96504340  0.14554575  0.61017862     1.93200
Cr1891     Cr  0.96857864  0.19761055  0.55022106     1.39100
O1892       O  0.95034131  0.17457323  0.58438510    -1.24500
O1893       O  0.90913670  0.34555258  0.97991047    -0.86800
O1894       O  0.90655936  0.37623535  0.89674489    -0.83800
C1895       C  0.91473238  0.39803486  0.91307612     0.96700
O1896       O  0.93887289  0.40050462  0.92496223    -0.83900
O1897       O  0.99188250  0.38092670  0.94680754    -0.86500
C1898       C  0.99402542  0.36925977  0.98755031     1.01200
O1899       O  0.97823154  0.35112414  0.99908445    -0.79300
O1900       O  0.93892856  0.31541633  0.49836784    -0.79500
C1901       C  0.92078767  0.33130428  0.51112983     1.01100
O1902       O  0.91769188  0.30020828  0.91911223    -0.86800
O1903       O  0.92350959  0.33389224  0.83997563    -0.83900
C1904       C  0.93336430  0.35170124  0.81300619     0.96700
O1905       O  0.94294755  0.37294686  0.83083307    -0.83900
O1906       O  0.49181221  0.35454046  0.85608637    -0.86500
C1907       C  0.50699168  0.33724664  0.87401184     1.01200
O1908       O  0.50216158  0.32667442  0.91464874    -0.79300
O1909       O  0.95969533  0.29386361  0.90679471    -0.79500
C1910       C  0.93614087  0.28589043  0.90321865     1.01100
Cr1911     Cr  0.91639969  0.33953332  0.90963072     1.93700
Cr1912     Cr  0.96497616  0.37535040  0.89244333     1.93200
Cr1913     Cr  0.96859727  0.32328255  0.95240881     1.39100
O1914       O  0.95031906  0.34630746  0.91825602    -1.24500
O1915       O  0.79618964  0.42170002  0.91845907    -0.86800
O1916       O  0.82989510  0.42753790  0.83938265    -0.83800
C1917       C  0.84771259  0.43738813  0.81243074     0.96700
O1918       O  0.86895341  0.44697919  0.83029399    -0.83900
O1919       O  0.85048505  0.99582301  0.85552397    -0.86500
C1920       C  0.83319235  0.01099798  0.87346968     1.01200
O1921       O  0.82263972  0.00616494  0.91412491    -0.79300
O1922       O  0.78983427  0.46370986  0.90624729    -0.79500
C1923       C  0.78186614  0.44016138  0.90261351     1.01100
O1924       O  0.84153069  0.41313073  0.97931984    -0.86800
O1925       O  0.87226325  0.41063222  0.89618679    -0.83900
C1926       C  0.89400654  0.41879194  0.91281922     0.96700
O1927       O  0.89645662  0.44294258  0.92460181    -0.83900
O1928       O  0.87686648  0.49592729  0.94626327    -0.86500
C1929       C  0.86522336  0.49804049  0.98702882     1.01200
O1930       O  0.84710602  0.48222233  0.99856407    -0.79300
O1931       O  0.81138337  0.44290492  0.49779006    -0.79500
C1932       C  0.82726788  0.42475638  0.51054164     1.01100
Cr1933     Cr  0.83552823  0.42042187  0.90903446     1.93700
Cr1934     Cr  0.87131870  0.46901205  0.89192207     1.93200
Cr1935     Cr  0.81925287  0.47259464  0.95187085     1.39100
O1936       O  0.84227691  0.45433835  0.91769577    -1.24500
O1937       O  0.65913757  0.09566751  0.72923592    -0.86800
O1938       O  0.65666758  0.12640138  0.64608148    -0.83800
C1939       C  0.66483444  0.14813156  0.66274101     0.96700
O1940       O  0.68899138  0.15056603  0.67452722    -0.83900
O1941       O  0.74196756  0.13092804  0.69623218    -0.86500
C1942       C  0.74406981  0.11927189  0.73699096     1.01200
O1943       O  0.72823605  0.10116585  0.74850759    -0.79300
O1944       O  0.68888134  0.06548703  0.74770309    -0.79500
C1945       C  0.67074820  0.08138648  0.76045700     1.01100
O1946       O  0.66766460  0.05032639  0.66836966    -0.86800
O1947       O  0.67353760  0.08402744  0.58931090    -0.83900
C1948       C  0.68340918  0.10182869  0.56235455     0.96700
O1949       O  0.69302339  0.12305908  0.58020935    -0.83900
O1950       O  0.74185717  0.10456500  0.60548891    -0.86500
C1951       C  0.75701284  0.08725312  0.62343495     1.01200
O1952       O  0.75216643  0.07669918  0.66408248    -0.79300
O1953       O  0.70967526  0.04393883  0.65616193    -0.79500
C1954       C  0.68611594  0.03598993  0.65252458     1.01100
Cr1955     Cr  0.66642396  0.08966375  0.65895064     1.93700
Cr1956     Cr  0.71505186  0.12541052  0.64186411     1.93200
Cr1957     Cr  0.71858579  0.07333674  0.70180184     1.39100
O1958       O  0.70035089  0.09638086  0.66762457    -1.24500
O1959       O  0.54621982  0.17176739  0.66909938    -0.86800
O1960       O  0.57990052  0.17760089  0.58996580    -0.83800
C1961       C  0.59770405  0.18746431  0.56299277     0.96700
O1962       O  0.61894663  0.19706619  0.58081397    -0.83900
O1963       O  0.60051194  0.24591179  0.60607856    -0.86500
C1964       C  0.58321652  0.26108134  0.62402007     1.01200
O1965       O  0.57264958  0.25623715  0.66465390    -0.79300
O1966       O  0.53985187  0.21376205  0.65678018    -0.79500
C1967       C  0.53188854  0.19020784  0.65320897     1.01100
O1968       O  0.59157792  0.16323156  0.72990584    -0.86800
O1969       O  0.62226031  0.16067484  0.64673819    -0.83900
C1970       C  0.64406877  0.16885346  0.66303579     0.96700
O1971       O  0.64653366  0.19299065  0.67492217    -0.83900
O1972       O  0.62691356  0.24598500  0.69679575    -0.86500
C1973       C  0.61524242  0.24811756  0.73753550     1.01200
O1974       O  0.59712254  0.23230549  0.74907175    -0.79300
O1975       O  0.56141767  0.19299782  0.74834618    -0.79500
C1976       C  0.57731519  0.17486643  0.76111615     1.01100
Cr1977     Cr  0.58555067  0.17049477  0.65962275     1.93700
Cr1978     Cr  0.62134735  0.21908442  0.64242545     1.93200
Cr1979     Cr  0.56927464  0.22266981  0.70239675     1.39100
O1980       O  0.59231014  0.20441063  0.66824212    -1.24500
O1981       O  0.96663447  0.17172200  0.83358188    -0.86800
O1982       O  0.93293764  0.17756478  0.91267345    -0.83800
C1983       C  0.91512027  0.18741346  0.93963834     0.96700
O1984       O  0.89388047  0.19701161  0.92178966    -0.83900
O1985       O  0.91235015  0.24584554  0.89657211    -0.86500
C1986       C  0.92964444  0.26101345  0.87863060     1.01200
O1987       O  0.94018485  0.25618073  0.83796238    -0.79300
O1988       O  0.97298884  0.21373216  0.84582617    -0.79500
C1989       C  0.98095730  0.19018397  0.84943753     1.01100
O1990       O  0.92129407  0.16314356  0.77272964    -0.86800
O1991       O  0.89057365  0.16064841  0.85588129    -0.83900
C1992       C  0.86882160  0.16880286  0.83929155     0.96700
O1993       O  0.86636363  0.19295142  0.82750735    -0.83900
O1994       O  0.88596266  0.24595022  0.80583531    -0.86500
C1995       C  0.89761325  0.24805965  0.76507467     1.01200
O1996       O  0.91571500  0.23222333  0.75352649    -0.79300
O1997       O  0.95144414  0.19291157  0.75427985    -0.79500
C1998       C  0.93556172  0.17476168  0.74151700     1.01100
Cr1999     Cr  0.92730065  0.17044205  0.84301977     1.93700
Cr2000     Cr  0.89150872  0.21903451  0.86016971     1.93200
Cr2001     Cr  0.94357046  0.22260681  0.80020892     1.39100
O2002       O  0.92054808  0.20435612  0.83437966    -1.24500
O2003       O  0.85372985  0.09554105  0.77225614    -0.86800
O2004       O  0.85628324  0.12624678  0.85542060    -0.83800
C2005       C  0.84810097  0.14803930  0.83908271     0.96700
O2006       O  0.82395745  0.15049920  0.82722008    -0.83900
O2007       O  0.77096596  0.13090632  0.80535108    -0.86500
C2008       C  0.76883885  0.11925031  0.76458275     1.01200
O2009       O  0.78464150  0.10111866  0.75303668    -0.79300
O2010       O  0.82394938  0.06539849  0.75376408    -0.79500
C2011       C  0.84208947  0.08128680  0.74102241     1.01100
O2012       O  0.84516685  0.05019931  0.83304553    -0.86800
O2013       O  0.83935088  0.08389808  0.91217438    -0.83900
C2014       C  0.82949384  0.10170424  0.93916128     0.96700
O2015       O  0.81989349  0.12294316  0.92135052    -0.83900
O2016       O  0.77103984  0.10451727  0.89604818    -0.86500
C2017       C  0.75585809  0.08723612  0.87807521     1.01200
O2018       O  0.76069316  0.07667324  0.83742241    -0.79300
O2019       O  0.80315598  0.04385546  0.84529476    -0.79500
C2020       C  0.82670943  0.03588138  0.84889995     1.01100
Cr2021     Cr  0.84645736  0.08953204  0.84252733     1.93700
Cr2022     Cr  0.79786823  0.12533770  0.85972411     1.93200
Cr2023     Cr  0.79426757  0.07327449  0.79969683     1.39100
O2024       O  0.81253703  0.09629865  0.83389030    -1.24500
O2025       O  0.85371607  0.42529159  0.72933163    -0.86800
O2026       O  0.85620575  0.39456742  0.64614303    -0.83800
C2027       C  0.84804765  0.37283141  0.66275529     0.96700
O2028       O  0.82389381  0.37039145  0.67452663    -0.83900
O2029       O  0.77089950  0.39000684  0.69618724    -0.86500
C2030       C  0.76877927  0.40167289  0.73694262     1.01200
O2031       O  0.78460180  0.41979015  0.74850005    -0.79300
O2032       O  0.82396214  0.45546141  0.74779226    -0.79500
C2033       C  0.84209415  0.43955932  0.76055403     1.01100
O2034       O  0.84517995  0.47063549  0.66851715    -0.86800
O2035       O  0.83930506  0.43693785  0.58939880    -0.83900
C2036       C  0.82943671  0.41913152  0.56241394     0.96700
O2037       O  0.81983477  0.39789750  0.58023945    -0.83900
O2038       O  0.77099663  0.41637143  0.60546758    -0.86500
C2039       C  0.75584473  0.43369384  0.62338358     1.01200
O2040       O  0.76068670  0.44425453  0.66404393    -0.79300
O2041       O  0.80317128  0.47701531  0.65623337    -0.79500
C2042       C  0.82672900  0.48496807  0.65264581     1.01100
Cr2043     Cr  0.84642857  0.43130017  0.65904527     1.93700
Cr2044     Cr  0.79781328  0.39553650  0.64186193     1.93200
Cr2045     Cr  0.79426111  0.44761589  0.70183134     1.39100
O2046       O  0.81250345  0.42457231  0.66766775    -1.24500
O2047       O  0.96666722  0.34918974  0.66917025    -0.86800
O2048       O  0.93297620  0.34333428  0.58999558    -0.83800
C2049       C  0.91517030  0.33346667  0.56299534     0.96700
O2050       O  0.89393191  0.32385902  0.58078957    -0.83900
O2051       O  0.91233971  0.27501207  0.60610072    -0.86500
C2052       C  0.92965425  0.25985481  0.62402961     1.01200
O2053       O  0.94025318  0.26471475  0.66464988    -0.79300
O2054       O  0.97303313  0.30719830  0.65681954    -0.79500
C2055       C  0.98099461  0.33075190  0.65325833     1.01100
O2056       O  0.92129890  0.35772418  0.72991070    -0.86800
O2057       O  0.89061473  0.36027586  0.64670105    -0.83900
C2058       C  0.86881486  0.35210767  0.66301372     0.96700
O2059       O  0.86635612  0.32797459  0.67489840    -0.83900
O2060       O  0.88595522  0.27498700  0.69679220    -0.86500
C2061       C  0.89764406  0.27283415  0.73752945     1.01200
O2062       O  0.91580049  0.28861461  0.74908226    -0.79300
O2063       O  0.95146407  0.32796570  0.74839362    -0.79500
C2064       C  0.93554827  0.34608443  0.76114479     1.01100
Cr2065     Cr  0.92732973  0.35045303  0.65964296     1.93700
Cr2066     Cr  0.89152675  0.30186393  0.64241871     1.93200
Cr2067     Cr  0.94362324  0.29828261  0.70241786     1.39100
O2068       O  0.92057329  0.31653618  0.66825620    -1.24500
O2069       O  0.65911667  0.42541992  0.77201792    -0.86800
O2070       O  0.65652147  0.39473467  0.85515943    -0.83800
C2071       C  0.66470335  0.37291794  0.83893189     0.96700
O2072       O  0.68883999  0.37044481  0.82705638    -0.83900
O2073       O  0.74185261  0.39001912  0.80521528    -0.86500
C2074       C  0.74400001  0.40169016  0.76447661     1.01200
O2075       O  0.72820631  0.41982992  0.75292418    -0.79300
O2076       O  0.68890853  0.45555413  0.75361942    -0.79500
C2077       C  0.67077317  0.43966458  0.74082218     1.01100
O2078       O  0.66768529  0.47075903  0.83284502    -0.86800
O2079       O  0.67348624  0.43706550  0.91197840    -0.83900
C2080       C  0.68334191  0.41925671  0.93896459     0.96700
O2081       O  0.69293544  0.39801511  0.92115314    -0.83900
O2082       O  0.74179856  0.41641210  0.89593922    -0.86500
C2083       C  0.75698055  0.43369565  0.87801820     1.01200
O2084       O  0.75214712  0.44426504  0.83737633    -0.79300
O2085       O  0.70969238  0.47708727  0.84521757    -0.79500
C2086       C  0.68614066  0.48506851  0.84876722     1.01100
Cr2087     Cr  0.66637929  0.43143306  0.84230705     1.93700
Cr2088     Cr  0.71495418  0.39560409  0.85956425     1.93200
Cr2089     Cr  0.71857923  0.44767044  0.79959973     1.39100
O2090       O  0.70029756  0.42464806  0.83372806    -1.24500
O2091       O  0.54619422  0.34922911  0.83358214    -0.86800
O2092       O  0.57989496  0.34336709  0.91271423    -0.83800
C2093       C  0.59771648  0.33351871  0.93968866     0.96700
O2094       O  0.61896199  0.32393811  0.92184991    -0.83900
O2095       O  0.60051600  0.27509459  0.89657190    -0.86500
C2096       C  0.58320526  0.25992995  0.87862844     1.01200
O2097       O  0.57263639  0.26476496  0.83796881    -0.79300
O2098       O  0.53983576  0.30722339  0.84579160    -0.79500
C2099       C  0.53187118  0.33077308  0.84942463     1.01100
O2100       O  0.59154371  0.35780056  0.77281499    -0.86800
O2101       O  0.62227179  0.36028447  0.85601619    -0.83900
C2102       C  0.64399635  0.35214333  0.83930469     0.96700
O2103       O  0.64644643  0.32799330  0.82752653    -0.83900
O2104       O  0.62688151  0.27500837  0.80586841    -0.86500
C2105       C  0.61522961  0.27288865  0.76509570     1.01200
O2106       O  0.59709770  0.28869412  0.75354345    -0.79300
O2107       O  0.56139811  0.32802892  0.75426743    -0.79500
C2108       C  0.57728831  0.34617692  0.74155661     1.01100
Cr2109     Cr  0.58553396  0.35049945  0.84308295     1.93700
Cr2110     Cr  0.62133174  0.30191526  0.86020475     1.93200
Cr2111     Cr  0.56925288  0.29833282  0.80020386     1.39100
O2112       O  0.59228150  0.31658419  0.83441076    -1.24500
O2113       O  0.60372364  0.67538899  0.47990894    -0.86800
O2114       O  0.60628214  0.64471049  0.39672079    -0.83800
C2115       C  0.59810929  0.62290668  0.41299591     0.96700
O2116       O  0.57397371  0.62044047  0.42487646    -0.83900
O2117       O  0.52097564  0.64003051  0.44676953    -0.86500
C2118       C  0.51883128  0.65170696  0.48751582     1.01200
O2119       O  0.53461937  0.66985554  0.49906974    -0.79300
O2120       O  0.57395451  0.70554252  0.99836567    -0.79500
C2121       C  0.59208170  0.68963752  0.01113062     1.01100
O2122       O  0.59516527  0.72074286  0.41913654    -0.86800
O2123       O  0.58933181  0.68705289  0.33998436    -0.83900
C2124       C  0.57947235  0.66924739  0.31298254     0.96700
O2125       O  0.56985972  0.64801330  0.33077593    -0.83900
O2126       O  0.52101165  0.66642020  0.35606968    -0.86500
C2127       C  0.50584405  0.68371661  0.37400837     1.01200
O2128       O  0.51069141  0.69429466  0.41464609    -0.79300
O2129       O  0.55316066  0.72708834  0.40678854    -0.79500
C2130       C  0.57671459  0.73505769  0.40321904     1.01100
Cr2131     Cr  0.59644821  0.68141335  0.40963632     1.93700
Cr2132     Cr  0.54785891  0.64560583  0.39239752     1.93200
Cr2133     Cr  0.54426617  0.69768164  0.45240034     1.39100
O2134       O  0.56252907  0.67464591  0.41824122    -1.24500
O2135       O  0.71664558  0.59923623  0.41845198    -0.86800
O2136       O  0.68294178  0.59339589  0.33932412    -0.83800
C2137       C  0.66512547  0.58354793  0.31233050     0.96700
O2138       O  0.64388465  0.57395448  0.33015026    -0.83900
O2139       O  0.66236187  0.52512026  0.35538028    -0.86500
C2140       C  0.67965317  0.50994719  0.37334874     1.01200
O2141       O  0.69019422  0.51477531  0.41403660    -0.79300
O2142       O  0.72300269  0.55722395  0.40623585    -0.79500
C2143       C  0.73096974  0.58077222  0.40262127     1.01100
O2144       O  0.67130503  0.60781402  0.47924866    -0.86800
O2145       O  0.64056697  0.61029969  0.39606900    -0.83900
C2146       C  0.61882992  0.60214310  0.41269287     0.96700
O2147       O  0.61638116  0.57799083  0.42443809    -0.83900
O2148       O  0.63597393  0.52500562  0.44607246    -0.86500
C2149       C  0.64761282  0.52289736  0.48686090     1.01200
O2150       O  0.66572287  0.53872444  0.49844328    -0.79300
O2151       O  0.70145344  0.57804278  0.99775011    -0.79500
C2152       C  0.68557238  0.59619578  0.01048445     1.01100
Cr2153     Cr  0.67730602  0.60051515  0.40896910     1.93700
Cr2154     Cr  0.64151974  0.55192378  0.39176442     1.93200
Cr2155     Cr  0.69358122  0.54834723  0.45180551     1.39100
O2156       O  0.67055929  0.56659996  0.41759903    -1.24500
O2157       O  0.60372566  0.84562632  0.02279160    -0.86800
O2158       O  0.60621950  0.87637796  0.10594713    -0.83800
C2159       C  0.59804786  0.89810373  0.08928455     0.96700
O2160       O  0.57388703  0.90053616  0.07753056    -0.83900
O2161       O  0.52090556  0.88092251  0.05589395    -0.86500
C2162       C  0.51879900  0.86927621  0.01511806     1.01200
O2163       O  0.53462669  0.85116673  0.00357122    -0.79300
O2164       O  0.57396068  0.81546528  0.50430655    -0.79500
C2165       C  0.59210097  0.83135444  0.49156152     1.01100
O2166       O  0.59518873  0.80029545  0.08362709    -0.86800
O2167       O  0.58933940  0.83400267  0.16271893    -0.83900
C2168       C  0.57947154  0.85180804  0.18968992     0.96700
O2169       O  0.56988182  0.87304727  0.17184829    -0.83900
O2170       O  0.52103550  0.85456177  0.14661509    -0.86500
C2171       C  0.50586705  0.83725645  0.12866741     1.01200
O2172       O  0.51069658  0.82670562  0.08799715    -0.79300
O2173       O  0.55317584  0.79392137  0.09583579    -0.79500
C2174       C  0.57673345  0.78596476  0.09945911     1.04300
Cr2175     Cr  0.59644786  0.83963369  0.09307537     1.93700
Cr2176     Cr  0.54783477  0.87539738  0.11022201     1.93200
Cr2177     Cr  0.54426904  0.82332774  0.05023859     1.39100
O2178       O  0.56252095  0.84636173  0.08442674    -1.24500
O2179       O  0.71664772  0.92177306  0.08282623    -0.86800
O2180       O  0.68297124  0.92763682  0.16198000    -0.83800
C2181       C  0.66516214  0.93750165  0.18895216     0.96700
O2182       O  0.64392096  0.94710582  0.17113070    -0.83900
O2183       O  0.66230888  0.49595663  0.14583419    -0.86500
C2184       C  0.67962950  0.51110793  0.12793906     1.01200
O2185       O  0.69023112  0.50624354  0.08734047    -0.79300
O2186       O  0.72301107  0.96376062  0.09521438    -0.79500
C2187       C  0.73097440  0.94020668  0.09876712     1.01100
O2188       O  0.67127610  0.91323404  0.02204853    -0.86800
O2189       O  0.64061920  0.91067354  0.10524771    -0.83900
C2190       C  0.61880675  0.91883238  0.08895054     0.96700
O2191       O  0.61633377  0.94296057  0.07702477    -0.83900
O2192       O  0.63592332  0.99596506  0.05510664    -0.86500
C2193       C  0.64762421  0.99812217  0.01440015     1.01200
O2194       O  0.66577383  0.98233544  0.00287759    -0.79300
O2195       O  0.70143668  0.94299440  0.50360653    -0.79500
C2196       C  0.68552284  0.92487405  0.49083252     1.01100
Cr2197     Cr  0.67731820  0.92050819  0.09232641     1.93700
Cr2198     Cr  0.64150269  0.96909202  0.10949855     1.93200
Cr2199     Cr  0.69359856  0.97267556  0.04957677     1.39100
O2200       O  0.67055146  0.95442256  0.08370385    -1.24500
O2201       O  0.79622361  0.59918061  0.08299549    -0.86800
O2202       O  0.82990794  0.59331848  0.16216849    -0.83800
C2203       C  0.84771232  0.58345016  0.18916203     0.96700
O2204       O  0.86895353  0.57384525  0.17136158    -0.83900
O2205       O  0.85053183  0.52500314  0.14602913    -0.86500
C2206       C  0.83321630  0.50984758  0.12808549     1.01200
O2207       O  0.82262756  0.51470318  0.08745707    -0.79300
O2208       O  0.78984906  0.55718913  0.09530251    -0.79500
C2209       C  0.78189044  0.58074430  0.09887335     1.01100
O2210       O  0.84158695  0.60771002  0.02226390    -0.86800
O2211       O  0.87227502  0.61024530  0.10549046    -0.83900
C2212       C  0.89406503  0.60208037  0.08911949     0.96700
O2213       O  0.89652361  0.57794318  0.07723453    -0.83900
O2214       O  0.87691076  0.52495216  0.05533718    -0.86500
C2215       C  0.86522358  0.52281191  0.01459507     1.01200
O2216       O  0.84708848  0.53861351  0.00305082    -0.79300
O2217       O  0.81141800  0.57795533  0.50375663    -0.79500
C2218       C  0.82732481  0.59608152  0.49102243     1.01100
Cr2219     Cr  0.83555850  0.60043704  0.09253073     1.93700
Cr2220     Cr  0.87135230  0.55184190  0.10971978     1.93200
Cr2221     Cr  0.81926030  0.54827167  0.04970994     1.39100
O2222       O  0.84230862  0.56651994  0.08389271    -1.24500
O2223       O  0.90912598  0.67529932  0.02271961    -0.86800
O2224       O  0.90664374  0.64456681  0.10585815    -0.83800
C2225       C  0.91481805  0.62281793  0.08930291     0.96700
O2226       O  0.93897248  0.62037917  0.07752984    -0.83900
O2227       O  0.99195698  0.64002026  0.05583461    -0.86500
C2228       C  0.99405734  0.65167432  0.01507311     1.01200
O2229       O  0.97821437  0.66977388  0.00353038    -0.79300
O2230       O  0.93887131  0.70547404  0.50429779    -0.79500
C2231       C  0.92074003  0.68957535  0.49151649     1.01100
O2232       O  0.91767072  0.72063809  0.08360256    -0.86800
O2233       O  0.92353139  0.68693318  0.16266795    -0.83900
C2234       C  0.93340161  0.66913110  0.18964179     0.96700
O2235       O  0.94302205  0.64790330  0.17180423    -0.83900
O2236       O  0.49185015  0.66639987  0.14657262    -0.86500
C2237       C  0.50700814  0.68370130  0.12862863     1.01200
O2238       O  0.50216405  0.69424053  0.08796245    -0.79300
O2239       O  0.95968652  0.72701303  0.09584775    -0.79500
C2240       C  0.93613003  0.73496923  0.09946050     1.01100
Cr2241     Cr  0.91641632  0.68130096  0.09301375     1.93700
Cr2242     Cr  0.96504334  0.64554575  0.11017863     1.93200
Cr2243     Cr  0.96857862  0.69761049  0.05022114     1.39100
O2244       O  0.95034123  0.67457321  0.08438505    -1.24500
O2245       O  0.90913671  0.84555261  0.47991056    -0.86800
O2246       O  0.90655930  0.87623538  0.39674507    -0.83800
C2247       C  0.91473235  0.89803487  0.41307625     0.96700
O2248       O  0.93887289  0.90050461  0.42496227    -0.83900
O2249       O  0.99188251  0.88092665  0.44680749    -0.86500
C2250       C  0.99402543  0.86925974  0.48755027     1.01200
O2251       O  0.97823152  0.85112417  0.49908448    -0.79300
O2252       O  0.93892859  0.81541639  0.99836777    -0.79500
C2253       C  0.92078769  0.83130434  0.01112974     1.01100
O2254       O  0.91769184  0.80020825  0.41911214    -0.86800
O2255       O  0.92350959  0.83389219  0.33997561    -0.83900
C2256       C  0.93336428  0.85170121  0.31300618     0.96700
O2257       O  0.94294751  0.87294682  0.33083312    -0.83900
O2258       O  0.49181211  0.85454036  0.35608624    -0.86500
C2259       C  0.50699164  0.83724664  0.37401181     1.01200
O2260       O  0.50216151  0.82667437  0.41464863    -0.79300
O2261       O  0.95969533  0.79386369  0.40679456    -0.79500
C2262       C  0.93614089  0.78589044  0.40321858     1.01100
Cr2263     Cr  0.91639968  0.83953333  0.40963078     1.93700
Cr2264     Cr  0.96497619  0.87535036  0.39244326     1.93200
Cr2265     Cr  0.96859731  0.82328259  0.45240875     1.39100
O2266       O  0.95031908  0.84630745  0.41825593    -1.24500
O2267       O  0.79618968  0.92169993  0.41845892    -0.86800
O2268       O  0.82989510  0.92753780  0.33938250    -0.83800
C2269       C  0.84771258  0.93738808  0.31243061     0.96700
O2270       O  0.86895339  0.94697916  0.33029386    -0.83900
O2271       O  0.85048505  0.49582305  0.35552404    -0.86500
C2272       C  0.83319238  0.51099803  0.37346980     1.01200
O2273       O  0.82263980  0.50616501  0.41412508    -0.79300
O2274       O  0.78983435  0.96370978  0.40624710    -0.79500
C2275       C  0.78186621  0.94016132  0.40261332     1.01100
O2276       O  0.84153067  0.91313072  0.47931973    -0.86800
O2277       O  0.87226324  0.91063223  0.39618668    -0.83900
C2278       C  0.89400652  0.91879196  0.41281921     0.96700
O2279       O  0.89645658  0.94294259  0.42460180    -0.83900
O2280       O  0.87686642  0.99592728  0.44626328    -0.86500
C2281       C  0.86522337  0.99804041  0.48702892     1.01200
O2282       O  0.84710606  0.98222221  0.49856413    -0.79300
O2283       O  0.81138337  0.94290499  0.99779020    -0.79500
C2284       C  0.82726786  0.92475643  0.01054178     1.01100
Cr2285     Cr  0.83552822  0.92042179  0.40903430     1.93700
Cr2286     Cr  0.87131866  0.96901201  0.39192202     1.93200
Cr2287     Cr  0.81925286  0.97259457  0.45187077     1.39100
O2288       O  0.84227686  0.95433828  0.41769562    -1.24500
O2289       O  0.65913755  0.59566755  0.22923591    -0.86800
O2290       O  0.65666760  0.62640133  0.14608151    -0.83800
C2291       C  0.66483446  0.64813153  0.16274094     0.96700
O2292       O  0.68899140  0.65056602  0.17452709    -0.83900
O2293       O  0.74196757  0.63092793  0.19623210    -0.86500
C2294       C  0.74406983  0.61927188  0.23699100     1.01200
O2295       O  0.72823612  0.60116580  0.24850774    -0.79300
O2296       O  0.68888129  0.56548709  0.24770327    -0.79500
C2297       C  0.67074821  0.58138660  0.26045708     1.01100
O2298       O  0.66766455  0.55032635  0.16836979    -0.86800
O2299       O  0.67353757  0.58402741  0.08931084    -0.83900
C2300       C  0.68340916  0.60182865  0.06235450     0.96700
O2301       O  0.69302335  0.62305903  0.08020926    -0.83900
O2302       O  0.74185708  0.60456489  0.10548888    -0.86500
C2303       C  0.75701279  0.58725308  0.12343501     1.01200
O2304       O  0.75216638  0.57669918  0.16408264    -0.79300
O2305       O  0.70967520  0.54393877  0.15616212    -0.79500
C2306       C  0.68611589  0.53598989  0.15252471     1.01100
Cr2307     Cr  0.66642398  0.58966371  0.15895064     1.93700
Cr2308     Cr  0.71505183  0.62541045  0.14186404     1.93200
Cr2309     Cr  0.71858574  0.57333670  0.20180201     1.39100
O2310       O  0.70035087  0.59638083  0.16762467    -1.24500
O2311       O  0.54621986  0.67176743  0.16909947    -0.86800
O2312       O  0.57990045  0.67760098  0.08996576    -0.83800
C2313       C  0.59770400  0.68746435  0.06299274     0.96700
O2314       O  0.61894661  0.69706620  0.08081396    -0.83900
O2315       O  0.60051201  0.74591183  0.10607871    -0.86500
C2316       C  0.58321652  0.76108133  0.12402021     1.01200
O2317       O  0.57264955  0.75623708  0.16465397    -0.79300
O2318       O  0.53985184  0.71376205  0.15678034    -0.79500
C2319       C  0.53188858  0.69020786  0.15320896     1.01100
O2320       O  0.59157797  0.66323155  0.22990575    -0.86800
O2321       O  0.62226032  0.66067484  0.14673807    -0.83900
C2322       C  0.64406879  0.66885342  0.16303574     0.96700
O2323       O  0.64653372  0.69299062  0.17492211    -0.83900
O2324       O  0.62691368  0.74598504  0.19679582    -0.86500
C2325       C  0.61524246  0.74811757  0.23753550     1.01200
O2326       O  0.59712261  0.73230546  0.24907169    -0.79300
O2327       O  0.56141768  0.69299772  0.24834625    -0.79500
C2328       C  0.57731523  0.67486636  0.26111613     1.01100
Cr2329     Cr  0.58555069  0.67049482  0.15962265     1.93700
Cr2330     Cr  0.62134743  0.71908445  0.14242551     1.93200
Cr2331     Cr  0.56927467  0.72266975  0.20239684     1.39100
O2332       O  0.59231019  0.70441065  0.16824212    -1.24500
O2333       O  0.96663454  0.67172202  0.33358170    -0.86800
O2334       O  0.93293767  0.67756473  0.41267343    -0.83800
C2335       C  0.91512033  0.68741345  0.43963834     0.96700
O2336       O  0.89388053  0.69701155  0.42178964    -0.83900
O2337       O  0.91235027  0.74584547  0.39657212    -0.86500
C2338       C  0.92964449  0.76101342  0.37863058     1.01200
O2339       O  0.94018481  0.75618076  0.33796224    -0.79300
O2340       O  0.97298886  0.71373217  0.34582616    -0.79500
C2341       C  0.98095734  0.69018397  0.34943749     1.01100
O2342       O  0.92129402  0.66314363  0.27272955    -0.86800
O2343       O  0.89057368  0.66064836  0.35588115    -0.83900
C2344       C  0.86882157  0.66880285  0.33929170     0.96700
O2345       O  0.86636357  0.69295140  0.32750759    -0.83900
O2346       O  0.88596259  0.74595017  0.30583529    -0.86500
C2347       C  0.89761319  0.74805961  0.26507463     1.01200
O2348       O  0.91571492  0.73222327  0.25352648    -0.79300
O2349       O  0.95144410  0.69291164  0.25427984    -0.79500
C2350       C  0.93556172  0.67476172  0.24151697     1.01100
Cr2351     Cr  0.92730069  0.67044207  0.34301963     1.93700
Cr2352     Cr  0.89150876  0.71903445  0.36016976     1.93200
Cr2353     Cr  0.94357042  0.72260685  0.30020886     1.39100
O2354       O  0.92054808  0.70435612  0.33437956    -1.24500
O2355       O  0.85372986  0.59554109  0.27225613    -0.86800
O2356       O  0.85628329  0.62624675  0.35542056    -0.83800
C2357       C  0.84810097  0.64803927  0.33908280     0.96700
O2358       O  0.82395747  0.65049910  0.32721996    -0.83900
O2359       O  0.77096602  0.63090636  0.30535101    -0.86500
C2360       C  0.76883889  0.61925035  0.26458269     1.01200
O2361       O  0.78464158  0.60111875  0.25303658    -0.79300
O2362       O  0.82394944  0.56539849  0.25376407    -0.79500
C2363       C  0.84208951  0.58128683  0.24102236     1.01100
O2364       O  0.84516685  0.55019934  0.33304569    -0.86800
O2365       O  0.83935083  0.58389814  0.41217450    -0.83900
C2366       C  0.82949386  0.60170431  0.43916140     0.96700
O2367       O  0.81989353  0.62294324  0.42135059    -0.83900
O2368       O  0.77103983  0.60451733  0.39604828    -0.86500
C2369       C  0.75585808  0.58723619  0.37807524     1.01200
O2370       O  0.76069317  0.57667334  0.33742245    -0.79300
O2371       O  0.80315596  0.54385546  0.34529474    -0.79500
C2372       C  0.82670941  0.53588139  0.34890000     1.01100
Cr2373     Cr  0.84645732  0.58953207  0.34252741     1.93700
Cr2374     Cr  0.79786823  0.62533770  0.35972409     1.93200
Cr2375     Cr  0.79426756  0.57327454  0.29969676     1.39100
O2376       O  0.81253700  0.59629865  0.33389033    -1.24500
O2377       O  0.85371614  0.92529159  0.22933151    -0.86800
O2378       O  0.85620577  0.89456746  0.14614288    -0.83800
C2379       C  0.84804763  0.87283146  0.16275518     0.96700
O2380       O  0.82389381  0.87039157  0.17452672    -0.83900
O2381       O  0.77089948  0.89000682  0.19618741    -0.86500
C2382       C  0.76877925  0.90167294  0.23694269     1.01200
O2383       O  0.78460177  0.91979023  0.24849997    -0.79300
O2384       O  0.82396210  0.95546130  0.24779222    -0.79500
C2385       C  0.84209414  0.93955925  0.26055393     1.01100
O2386       O  0.84517994  0.97063551  0.16851711    -0.86800
O2387       O  0.83930501  0.93693794  0.08939883    -0.83900
C2388       C  0.82943664  0.91913160  0.06241403     0.96700
O2389       O  0.81983467  0.89789760  0.08023951    -0.83900
O2390       O  0.77099661  0.91637143  0.10546765    -0.86500
C2391       C  0.75584473  0.93369385  0.12338351     1.01200
O2392       O  0.76068670  0.94425460  0.16404380    -0.79300
O2393       O  0.80317129  0.97701536  0.15623331    -0.79500
C2394       C  0.82672903  0.98496812  0.15264586     1.01100
Cr2395     Cr  0.84642864  0.93130022  0.15904516     1.93700
Cr2396     Cr  0.79781324  0.89553656  0.14186205     1.93200
Cr2397     Cr  0.79426114  0.94761589  0.20183120     1.39100
O2398       O  0.81250350  0.92457235  0.16766768    -1.24500
O2399       O  0.96666723  0.84918973  0.16917035    -0.86800
O2400       O  0.93297629  0.84333422  0.08999566    -0.83800
C2401       C  0.91517037  0.83346671  0.06299532     0.96700
O2402       O  0.89393200  0.82385902  0.08078953    -0.83900
O2403       O  0.91233975  0.77501209  0.10610062    -0.86500
C2404       C  0.92965429  0.75985484  0.12402950     1.01200
O2405       O  0.94025324  0.76471480  0.16464972    -0.79300
O2406       O  0.97303307  0.80719832  0.15681937    -0.79500
C2407       C  0.98099460  0.83075192  0.15325829     1.01100
O2408       O  0.92129883  0.85772410  0.22991071    -0.86800
O2409       O  0.89061470  0.86027586  0.14670096    -0.83900
C2410       C  0.86881482  0.85210768  0.16301355     0.96700
O2411       O  0.86635609  0.82797459  0.17489820    -0.83900
O2412       O  0.88595525  0.77498704  0.19679213    -0.86500
C2413       C  0.89764408  0.77283413  0.23752938     1.01200
O2414       O  0.91580053  0.78861455  0.24908223    -0.79300
O2415       O  0.95146412  0.82796571  0.24839360    -0.79500
C2416       C  0.93554832  0.84608445  0.26114476     1.01100
Cr2417     Cr  0.92732969  0.85045299  0.15964303     1.93700
Cr2418     Cr  0.89152680  0.80186396  0.14241862     1.93200
Cr2419     Cr  0.94362323  0.79828260  0.20241778     1.39100
O2420       O  0.92057326  0.81653619  0.16825627    -1.24500
O2421       O  0.65911662  0.92542008  0.27201789    -0.86800
O2422       O  0.65652139  0.89473473  0.35515948    -0.83800
C2423       C  0.66470327  0.87291801  0.33893194     0.96700
O2424       O  0.68883990  0.87044489  0.32705631    -0.83900
O2425       O  0.74185250  0.89001909  0.30521524    -0.86500
C2426       C  0.74399998  0.90169022  0.26447664     1.01200
O2427       O  0.72820630  0.91982999  0.25292414    -0.79300
O2428       O  0.68890860  0.95555422  0.25361935    -0.79500
C2429       C  0.67077321  0.93966468  0.24082215     1.01100
O2430       O  0.66768530  0.97075907  0.33284505    -0.86800
O2431       O  0.67348618  0.93706546  0.41197830    -0.83900
C2432       C  0.68334186  0.91925667  0.43896452     0.96700
O2433       O  0.69293535  0.89801505  0.42115310    -0.83900
O2434       O  0.74179858  0.91641211  0.39593929    -0.86500
C2435       C  0.75698059  0.93369562  0.37801818     1.01200
O2436       O  0.75214713  0.94426507  0.33737635    -0.79300
O2437       O  0.70969243  0.97708730  0.34521756    -0.79500
C2438       C  0.68614071  0.98506854  0.34876718     1.01100
Cr2439     Cr  0.66637924  0.93143313  0.34230699     1.93700
Cr2440     Cr  0.71495412  0.89560408  0.35956428     1.93200
Cr2441     Cr  0.71857927  0.94767051  0.29959966     1.39100
O2442       O  0.70029755  0.92464810  0.33372800    -1.24500
O2443       O  0.54619419  0.84922918  0.33358206    -0.86800
O2444       O  0.57989494  0.84336715  0.41271413    -0.83800
C2445       C  0.59771644  0.83351873  0.43968857     0.96700
O2446       O  0.61896193  0.82393806  0.42184983    -0.83900
O2447       O  0.60051607  0.77509458  0.39657182    -0.86500
C2448       C  0.58320527  0.75993001  0.37862845     1.01200
O2449       O  0.57263640  0.76476504  0.33796882    -0.79300
O2450       O  0.53983571  0.80722347  0.34579156    -0.79500
C2451       C  0.53187116  0.83077316  0.34942466     1.01100
O2452       O  0.59154362  0.85780062  0.27281490    -0.86800
O2453       O  0.62227174  0.86028446  0.35601626    -0.83900
C2454       C  0.64399631  0.85214335  0.33930472     0.96700
O2455       O  0.64644642  0.82799332  0.32752657    -0.83900
O2456       O  0.62688147  0.77500833  0.30586847    -0.86500
C2457       C  0.61522959  0.77288863  0.26509577     1.01200
O2458       O  0.59709764  0.78869406  0.25354356    -0.79300
O2459       O  0.56139808  0.82802890  0.25426730    -0.79500
C2460       C  0.57728826  0.84617693  0.24155653     1.01100
Cr2461     Cr  0.58553392  0.85049951  0.34308285     1.93700
Cr2462     Cr  0.62133170  0.80191528  0.36020466     1.93200
Cr2463     Cr  0.56925283  0.79833287  0.30020390     1.39100
O2464       O  0.59228147  0.81658426  0.33441066    -1.24500
O2465       O  0.60372360  0.67538898  0.97990890    -0.86800
O2466       O  0.60628208  0.64471054  0.89672086    -0.83800
C2467       C  0.59810927  0.62290675  0.91299603     0.96700
O2468       O  0.57397371  0.62044055  0.92487673    -0.83900
O2469       O  0.52097561  0.64003048  0.94676951    -0.86500
C2470       C  0.51883124  0.65170696  0.98751576     1.01200
O2471       O  0.53461937  0.66985552  0.99906962    -0.79300
O2472       O  0.57395453  0.70554254  0.49836570    -0.79500
C2473       C  0.59208170  0.68963752  0.51113066     1.01100
O2474       O  0.59516530  0.72074284  0.91913646    -0.86800
O2475       O  0.58933179  0.68705287  0.83998434    -0.83900
C2476       C  0.57947228  0.66924740  0.81298257     0.96700
O2477       O  0.56985973  0.64801328  0.83077599    -0.83900
O2478       O  0.52101163  0.66642017  0.85606972    -0.86500
C2479       C  0.50584407  0.68371664  0.87400833     1.01200
O2480       O  0.51069143  0.69429471  0.91464600    -0.79300
O2481       O  0.55316069  0.72708836  0.90678860    -0.79500
C2482       C  0.57671464  0.73505771  0.90321910     1.01100
Cr2483     Cr  0.59644813  0.68141334  0.90963633     1.93700
Cr2484     Cr  0.54785891  0.64560582  0.89239760     1.93200
Cr2485     Cr  0.54426616  0.69768163  0.95240027     1.39100
O2486       O  0.56252901  0.67464592  0.91824116    -1.24500
O2487       O  0.71664554  0.59923626  0.91845180    -0.86800
O2488       O  0.68294177  0.59339589  0.83932400    -0.83800
C2489       C  0.66512547  0.58354788  0.81233045     0.96700
O2490       O  0.64388467  0.57395444  0.83015033    -0.83900
O2491       O  0.66236190  0.52512024  0.85538045    -0.86500
C2492       C  0.67965318  0.50994715  0.87334888     1.01200
O2493       O  0.69019428  0.51477528  0.91403673    -0.79300
O2494       O  0.72300272  0.55722397  0.90623600    -0.79500
C2495       C  0.73096972  0.58077222  0.90262119     1.01100
O2496       O  0.67130500  0.60781403  0.97924862    -0.86800
O2497       O  0.64056692  0.61029975  0.89606887    -0.83900
C2498       C  0.61882987  0.60214313  0.91269277     0.96700
O2499       O  0.61638111  0.57799085  0.92443791    -0.83900
O2500       O  0.63597396  0.52500557  0.94607250    -0.86500
C2501       C  0.64761283  0.52289734  0.98686096     1.01200
O2502       O  0.66572289  0.53872443  0.99844327    -0.79300
O2503       O  0.70145352  0.57804282  0.49774999    -0.79500
C2504       C  0.68557243  0.59619577  0.51048446     1.01100
Cr2505     Cr  0.67730597  0.60051514  0.90896899     1.93700
Cr2506     Cr  0.64151976  0.55192375  0.89176448     1.93200
Cr2507     Cr  0.69358123  0.54834723  0.95180559     1.39100
O2508       O  0.67055930  0.56659995  0.91759902    -1.24500
O2509       O  0.60372564  0.84562632  0.52279159    -0.86800
O2510       O  0.60621940  0.87637795  0.60594728    -0.83800
C2511       C  0.59804782  0.89810374  0.58928456     0.96700
O2512       O  0.57388703  0.90053619  0.57753053    -0.83900
O2513       O  0.52090559  0.88092253  0.55589392    -0.86500
C2514       C  0.51879903  0.86927621  0.51511806     1.01200
O2515       O  0.53462671  0.85116670  0.50357132    -0.79300
O2516       O  0.57396068  0.81546527  0.00430666    -0.79500
C2517       C  0.59210097  0.83135443  0.99156159     1.01100
O2518       O  0.59518873  0.80029545  0.58362697    -0.86800
O2519       O  0.58933925  0.83400260  0.66271890    -0.83900
C2520       C  0.57947154  0.85180803  0.68968995     0.96700
O2521       O  0.56988182  0.87304727  0.67184832    -0.83900
O2522       O  0.52103553  0.85456178  0.64661517    -0.86500
C2523       C  0.50586710  0.83725641  0.62866755     1.01200
O2524       O  0.51069661  0.82670558  0.58799730    -0.79300
O2525       O  0.55317585  0.79392133  0.59583569    -0.79500
C2526       C  0.57673347  0.78596475  0.59945901     1.04300
Cr2527     Cr  0.59644776  0.83963368  0.59307540     1.93700
Cr2528     Cr  0.54783478  0.87539738  0.61022198     1.93200
Cr2529     Cr  0.54426905  0.82332771  0.55023864     1.39100
O2530       O  0.56252091  0.84636170  0.58442678    -1.24500
O2531       O  0.71664772  0.92177312  0.58282609    -0.86800
O2532       O  0.68297123  0.92763679  0.66198000    -0.83800
C2533       C  0.66516214  0.93750165  0.68895215     0.96700
O2534       O  0.64392097  0.94710584  0.67113064    -0.83900
O2535       O  0.66230888  0.49595668  0.64583404    -0.86500
C2536       C  0.67962952  0.51110797  0.62793892     1.01200
O2537       O  0.69023116  0.50624358  0.58734034    -0.79300
O2538       O  0.72301108  0.96376064  0.59521446    -0.79500
C2539       C  0.73097438  0.94020669  0.59876721     1.01100
O2540       O  0.67127601  0.91323404  0.52204850    -0.86800
O2541       O  0.64061916  0.91067352  0.60524789    -0.83900
C2542       C  0.61880675  0.91883235  0.58895066     0.96700
O2543       O  0.61633378  0.94296055  0.57702481    -0.83900
O2544       O  0.63592335  0.99596501  0.55510648    -0.86500
C2545       C  0.64762424  0.99812216  0.51440000     1.01200
O2546       O  0.66577386  0.98233543  0.50287742    -0.79300
O2547       O  0.70143676  0.94299442  0.00360664    -0.79500
C2548       C  0.68552294  0.92487405  0.99083259     1.01100
Cr2549     Cr  0.67731818  0.92050817  0.59232644     1.93700
Cr2550     Cr  0.64150272  0.96909200  0.60949844     1.93200
Cr2551     Cr  0.69359858  0.97267554  0.54957669     1.39100
O2552       O  0.67055149  0.95442255  0.58370383    -1.24500
O2553       O  0.79622364  0.59918066  0.58299564    -0.86800
O2554       O  0.82990792  0.59331844  0.66216862    -0.83800
C2555       C  0.84771231  0.58345015  0.68916212     0.96700
O2556       O  0.86895353  0.57384525  0.67136170    -0.83900
O2557       O  0.85053180  0.52500311  0.64602923    -0.86500
C2558       C  0.83321627  0.50984756  0.62808556     1.01200
O2559       O  0.82262760  0.51470315  0.58745705    -0.79300
O2560       O  0.78984910  0.55718916  0.59530263    -0.79500
C2561       C  0.78189046  0.58074435  0.59887332     1.01100
O2562       O  0.84158696  0.60770997  0.52226397    -0.86800
O2563       O  0.87227503  0.61024530  0.60549043    -0.83900
C2564       C  0.89406506  0.60208036  0.58911950     0.96700
O2565       O  0.89652367  0.57794317  0.57723470    -0.83900
O2566       O  0.87691075  0.52495215  0.55533727    -0.86500
C2567       C  0.86522355  0.52281190  0.51459518     1.01200
O2568       O  0.84708847  0.53861352  0.50305092    -0.79300
O2569       O  0.81141807  0.57795530  0.00375645    -0.79500
C2570       C  0.82732487  0.59608151  0.99102231     1.01100
Cr2571     Cr  0.83555852  0.60043702  0.59253083     1.93700
Cr2572     Cr  0.87135232  0.55184187  0.60971993     1.93200
Cr2573     Cr  0.81926031  0.54827167  0.54971006     1.39100
O2574       O  0.84230864  0.56651992  0.58389285    -1.24500
O2575       O  0.90912602  0.67529931  0.52271970    -0.86800
O2576       O  0.90664373  0.64456683  0.60585830    -0.83800
C2577       C  0.91481802  0.62281799  0.58930291     0.96700
O2578       O  0.93897246  0.62037925  0.57752981    -0.83900
O2579       O  0.99195694  0.64002022  0.55583456    -0.86500
C2580       C  0.99405733  0.65167428  0.51507307     1.01200
O2581       O  0.97821438  0.66977386  0.50353036    -0.79300
O2582       O  0.93887128  0.70547407  0.00429789    -0.79500
C2583       C  0.92074004  0.68957535  0.99151647     1.01100
O2584       O  0.91767070  0.72063810  0.58360268    -0.86800
O2585       O  0.92353131  0.68693316  0.66266799    -0.83900
C2586       C  0.93340161  0.66913111  0.68964180     0.96700
O2587       O  0.94302209  0.64790333  0.67180423    -0.83900
O2588       O  0.49185013  0.66639982  0.64657263    -0.86500
C2589       C  0.50700814  0.68370127  0.62862863     1.01200
O2590       O  0.50216406  0.69424052  0.58796248    -0.79300
O2591       O  0.95968654  0.72701308  0.59584755    -0.79500
C2592       C  0.93613003  0.73496928  0.59946043     1.01100
Cr2593     Cr  0.91641634  0.68130096  0.59301384     1.93700
Cr2594     Cr  0.96504335  0.64554575  0.61017862     1.93200
Cr2595     Cr  0.96857864  0.69761048  0.55022106     1.39100
O2596       O  0.95034126  0.67457323  0.58438510    -1.24500
O2597       O  0.90913671  0.84555261  0.97991044    -0.86800
O2598       O  0.90655932  0.87623539  0.89674488    -0.83800
C2599       C  0.91473236  0.89803488  0.91307613     0.96700
O2600       O  0.93887291  0.90050462  0.92496218    -0.83900
O2601       O  0.99188256  0.88092663  0.94680749    -0.86500
C2602       C  0.99402543  0.86925975  0.98755030     1.01200
O2603       O  0.97823153  0.85112417  0.99908450    -0.79300
O2604       O  0.93892859  0.81541640  0.49836780    -0.79500
C2605       C  0.92078769  0.83130434  0.51112982     1.01100
O2606       O  0.91769189  0.80020829  0.91911220    -0.86800
O2607       O  0.92350968  0.83389220  0.83997563    -0.83900
C2608       C  0.93336433  0.85170123  0.81300619     0.96700
O2609       O  0.94294753  0.87294686  0.83083311    -0.83900
O2610       O  0.49181212  0.85454036  0.85608629    -0.86500
C2611       C  0.50699163  0.83724661  0.87401183     1.01200
O2612       O  0.50216156  0.82667447  0.91464879    -0.79300
O2613       O  0.95969537  0.79386367  0.90679470    -0.79500
C2614       C  0.93614091  0.78589045  0.90321868     1.01100
Cr2615     Cr  0.91639969  0.83953334  0.90963070     1.93700
Cr2616     Cr  0.96497620  0.87535036  0.89244330     1.93200
Cr2617     Cr  0.96859733  0.82328260  0.95240883     1.39100
O2618       O  0.95031908  0.84630748  0.91825605    -1.24500
O2619       O  0.79618969  0.92170007  0.91845909    -0.86800
O2620       O  0.82989509  0.92753795  0.83938269    -0.83800
C2621       C  0.84771259  0.93738812  0.81243074     0.96700
O2622       O  0.86895343  0.94697914  0.83029397    -0.83900
O2623       O  0.85048495  0.49582300  0.85552398    -0.86500
C2624       C  0.83319229  0.51099799  0.87346972     1.01200
O2625       O  0.82263969  0.50616497  0.91412498    -0.79300
O2626       O  0.78983423  0.96370990  0.90624731    -0.79500
C2627       C  0.78186617  0.94016140  0.90261346     1.01100
O2628       O  0.84153069  0.91313075  0.97931987    -0.86800
O2629       O  0.87226322  0.91063228  0.89618678    -0.83900
C2630       C  0.89400652  0.91879198  0.91281925     0.96700
O2631       O  0.89645659  0.94294259  0.92460185    -0.83900
O2632       O  0.87686644  0.99592728  0.94626324    -0.86500
C2633       C  0.86522337  0.99804042  0.98702885     1.01200
O2634       O  0.84710604  0.98222225  0.99856404    -0.79300
O2635       O  0.81138334  0.94290492  0.49779006    -0.79500
C2636       C  0.82726785  0.92475640  0.51054166     1.01100
Cr2637     Cr  0.83552823  0.92042191  0.90903447     1.93700
Cr2638     Cr  0.87131868  0.96901201  0.89192207     1.93200
Cr2639     Cr  0.81925284  0.97259467  0.95187085     1.39100
O2640       O  0.84227687  0.95433836  0.91769578    -1.24500
O2641       O  0.65913752  0.59566755  0.72923589    -0.86800
O2642       O  0.65666751  0.62640133  0.64608147    -0.83800
C2643       C  0.66483439  0.64813151  0.66274098     0.96700
O2644       O  0.68899132  0.65056596  0.67452721    -0.83900
O2645       O  0.74196749  0.63092805  0.69623224    -0.86500
C2646       C  0.74406978  0.61927187  0.73699098     1.01200
O2647       O  0.72823605  0.60116579  0.74850757    -0.79300
O2648       O  0.68888128  0.56548707  0.74770311    -0.79500
C2649       C  0.67074816  0.58138655  0.76045699     1.01100
O2650       O  0.66766456  0.55032635  0.66836971    -0.86800
O2651       O  0.67353756  0.58402739  0.58931090    -0.83900
C2652       C  0.68340920  0.60182862  0.56235457     0.96700
O2653       O  0.69302338  0.62305900  0.58020936    -0.83900
O2654       O  0.74185715  0.60456500  0.60548890    -0.86500
C2655       C  0.75701281  0.58725311  0.62343494     1.01200
O2656       O  0.75216638  0.57669917  0.66408249    -0.79300
O2657       O  0.70967522  0.54393878  0.65616195    -0.79500
C2658       C  0.68611590  0.53598992  0.65252456     1.01100
Cr2659     Cr  0.66642390  0.58966370  0.65895065     1.93700
Cr2660     Cr  0.71505181  0.62541047  0.64186413     1.93200
Cr2661     Cr  0.71858575  0.57333668  0.70180184     1.39100
O2662       O  0.70035085  0.59638080  0.66762460    -1.24500
O2663       O  0.54621983  0.67176741  0.66909944    -0.86800
O2664       O  0.57990046  0.67760097  0.58996583    -0.83800
C2665       C  0.59770400  0.68746434  0.56299282     0.96700
O2666       O  0.61894663  0.69706617  0.58081405    -0.83900
O2667       O  0.60051200  0.74591184  0.60607864    -0.86500
C2668       C  0.58321653  0.76108134  0.62402014     1.01200
O2669       O  0.57264952  0.75623709  0.66465388    -0.79300
O2670       O  0.53985184  0.71376203  0.65678016    -0.79500
C2671       C  0.53188856  0.69020782  0.65320893     1.01100
O2672       O  0.59157792  0.66323158  0.72990582    -0.86800
O2673       O  0.62226027  0.66067489  0.64673815    -0.83900
C2674       C  0.64406874  0.66885345  0.66303579     0.96700
O2675       O  0.64653367  0.69299063  0.67492232    -0.83900
O2676       O  0.62691357  0.74598505  0.69679579    -0.86500
C2677       C  0.61524244  0.74811753  0.73753555     1.01200
O2678       O  0.59712256  0.73230543  0.74907174    -0.79300
O2679       O  0.56141760  0.69299773  0.74834619    -0.79500
C2680       C  0.57731515  0.67486638  0.76111615     1.01100
Cr2681     Cr  0.58555064  0.67049483  0.65962275     1.93700
Cr2682     Cr  0.62134740  0.71908446  0.64242558     1.93200
Cr2683     Cr  0.56927460  0.72266975  0.70239677     1.39100
O2684       O  0.59231014  0.70441066  0.66824215    -1.24500
O2685       O  0.96663453  0.67172198  0.83358185    -0.86800
O2686       O  0.93293769  0.67756471  0.91267350    -0.83800
C2687       C  0.91512036  0.68741349  0.93963835     0.96700
O2688       O  0.89388058  0.69701166  0.92178966    -0.83900
O2689       O  0.91235029  0.74584546  0.89657216    -0.86500
C2690       C  0.92964451  0.76101342  0.87863065     1.01200
O2691       O  0.94018485  0.75618075  0.83796235    -0.79300
O2692       O  0.97298881  0.71373215  0.84582616    -0.79500
C2693       C  0.98095731  0.69018396  0.84943752     1.01100
O2694       O  0.92129407  0.66314364  0.77272963    -0.86800
O2695       O  0.89057367  0.66064847  0.85588129    -0.83900
C2696       C  0.86882160  0.66880289  0.83929158     0.96700
O2697       O  0.86636361  0.69295144  0.82750740    -0.83900
O2698       O  0.88596264  0.74595016  0.80583533    -0.86500
C2699       C  0.89761320  0.74805960  0.76507465     1.01200
O2700       O  0.91571494  0.73222328  0.75352648    -0.79300
O2701       O  0.95144412  0.69291165  0.75427984    -0.79500
C2702       C  0.93556173  0.67476173  0.74151699     1.01100
Cr2703     Cr  0.92730071  0.67044208  0.84301976     1.93700
Cr2704     Cr  0.89150880  0.71903447  0.86016972     1.93200
Cr2705     Cr  0.94357043  0.72260685  0.80020889     1.39100
O2706       O  0.92054813  0.70435612  0.83437964    -1.24500
O2707       O  0.85372990  0.59554108  0.77225612    -0.86800
O2708       O  0.85628325  0.62624678  0.85542060    -0.83800
C2709       C  0.84810098  0.64803930  0.83908271     0.96700
O2710       O  0.82395746  0.65049919  0.82722010    -0.83900
O2711       O  0.77096601  0.63090635  0.80535103    -0.86500
C2712       C  0.76883886  0.61925031  0.76458275     1.01200
O2713       O  0.78464158  0.60111872  0.75303665    -0.79300
O2714       O  0.82394947  0.56539848  0.75376416    -0.79500
C2715       C  0.84208952  0.58128681  0.74102242     1.01100
O2716       O  0.84516680  0.55019931  0.83304554    -0.86800
O2717       O  0.83935086  0.58389813  0.91217435    -0.83900
C2718       C  0.82949389  0.60170430  0.93916129     0.96700
O2719       O  0.81989346  0.62294319  0.92135057    -0.83900
O2720       O  0.77103979  0.60451733  0.89604820    -0.86500
C2721       C  0.75585807  0.58723618  0.87807520     1.01200
O2722       O  0.76069319  0.57667331  0.83742241    -0.79300
O2723       O  0.80315593  0.54385544  0.84529471    -0.79500
C2724       C  0.82670937  0.53588138  0.84889996     1.01100
Cr2725     Cr  0.84645733  0.58953206  0.84252731     1.93700
Cr2726     Cr  0.79786823  0.62533770  0.85972411     1.93200
Cr2727     Cr  0.79426758  0.57327452  0.79969680     1.39100
O2728       O  0.81253702  0.59629866  0.83389030    -1.24500
O2729       O  0.85371607  0.92529152  0.72933164    -0.86800
O2730       O  0.85620574  0.89456749  0.64614299    -0.83800
C2731       C  0.84804762  0.87283148  0.66275530     0.96700
O2732       O  0.82389378  0.87039152  0.67452662    -0.83900
O2733       O  0.77089945  0.89000692  0.69618723    -0.86500
C2734       C  0.76877923  0.90167296  0.73694262     1.01200
O2735       O  0.78460178  0.91979018  0.74850006    -0.79300
O2736       O  0.82396214  0.95546132  0.74779225    -0.79500
C2737       C  0.84209414  0.93955924  0.76055403     1.01100
O2738       O  0.84517997  0.97063555  0.66851721    -0.86800
O2739       O  0.83930506  0.93693793  0.58939879    -0.83900
C2740       C  0.82943667  0.91913160  0.56241396     0.96700
O2741       O  0.81983473  0.89789758  0.58023946    -0.83900
O2742       O  0.77099661  0.91637146  0.60546758    -0.86500
C2743       C  0.75584470  0.93369382  0.62338361     1.01200
O2744       O  0.76068671  0.94425455  0.66404392    -0.79300
O2745       O  0.80317131  0.97701535  0.65623340    -0.79500
C2746       C  0.82672905  0.98496812  0.65264584     1.01100
Cr2747     Cr  0.84642863  0.93130022  0.65904526     1.93700
Cr2748     Cr  0.79781325  0.89553657  0.64186193     1.93200
Cr2749     Cr  0.79426116  0.94761586  0.70183131     1.39100
O2750       O  0.81250349  0.92457234  0.66766771    -1.24500
O2751       O  0.96666719  0.84918972  0.66917024    -0.86800
O2752       O  0.93297633  0.84333420  0.58999561    -0.83800
C2753       C  0.91517038  0.83346671  0.56299534     0.96700
O2754       O  0.89393197  0.82385911  0.58078958    -0.83900
O2755       O  0.91233971  0.77501212  0.60610077    -0.86500
C2756       C  0.92965432  0.75985488  0.62402958     1.01200
O2757       O  0.94025326  0.76471478  0.66464981    -0.79300
O2758       O  0.97303308  0.80719828  0.65681957    -0.79500
C2759       C  0.98099457  0.83075189  0.65325833     1.01100
O2760       O  0.92129884  0.85772411  0.72991071    -0.86800
O2761       O  0.89061472  0.86027591  0.64670102    -0.83900
C2762       C  0.86881486  0.85210776  0.66301372     0.96700
O2763       O  0.86635610  0.82797467  0.67489841    -0.83900
O2764       O  0.88595524  0.77498701  0.69679216    -0.86500
C2765       C  0.89764405  0.77283411  0.73752945     1.01200
O2766       O  0.91580049  0.78861453  0.74908233    -0.79300
O2767       O  0.95146408  0.82796569  0.74839362    -0.79500
C2768       C  0.93554830  0.84608444  0.76114477     1.01100
Cr2769     Cr  0.92732971  0.85045297  0.65964296     1.93700
Cr2770     Cr  0.89152673  0.80186399  0.64241870     1.93200
Cr2771     Cr  0.94362322  0.79828258  0.70241788     1.39100
O2772       O  0.92057326  0.81653616  0.66825623    -1.24500
O2773       O  0.65911665  0.92542004  0.77201791    -0.86800
O2774       O  0.65652142  0.89473473  0.85515939    -0.83800
C2775       C  0.66470330  0.87291799  0.83893187     0.96700
O2776       O  0.68883993  0.87044484  0.82705636    -0.83900
O2777       O  0.74185254  0.89001907  0.80521521    -0.86500
C2778       C  0.74399997  0.90169021  0.76447662     1.01200
O2779       O  0.72820627  0.91982998  0.75292424    -0.79300
O2780       O  0.68890857  0.95555420  0.75361942    -0.79500
C2781       C  0.67077321  0.93966466  0.74082218     1.01100
O2782       O  0.66768530  0.97075910  0.83284505    -0.86800
O2783       O  0.67348620  0.93706543  0.91197842    -0.83900
C2784       C  0.68334193  0.91925666  0.93896460     0.96700
O2785       O  0.69293540  0.89801503  0.92115316    -0.83900
O2786       O  0.74179862  0.91641205  0.89593918    -0.86500
C2787       C  0.75698060  0.93369562  0.87801813     1.01200
O2788       O  0.75214711  0.94426509  0.83737638    -0.79300
O2789       O  0.70969241  0.97708733  0.84521754    -0.79500
C2790       C  0.68614069  0.98506857  0.84876721     1.01100
Cr2791     Cr  0.66637925  0.93143312  0.84230706     1.93700
Cr2792     Cr  0.71495415  0.89560405  0.85956425     1.93200
Cr2793     Cr  0.71857922  0.94767050  0.79959976     1.39100
O2794       O  0.70029754  0.92464809  0.83372809    -1.24500
O2795       O  0.54619416  0.84922917  0.83358216    -0.86800
O2796       O  0.57989494  0.84336714  0.91271424    -0.83800
C2797       C  0.59771643  0.83351869  0.93968865     0.96700
O2798       O  0.61896193  0.82393806  0.92184992    -0.83900
O2799       O  0.60051606  0.77509463  0.89657193    -0.86500
C2800       C  0.58320530  0.75993002  0.87862849     1.01200
O2801       O  0.57263645  0.76476503  0.83796884    -0.79300
O2802       O  0.53983574  0.80722345  0.84579158    -0.79500
C2803       C  0.53187114  0.83077312  0.84942463     1.01100
O2804       O  0.59154364  0.85780060  0.77281501    -0.86800
O2805       O  0.62227174  0.86028452  0.85601617    -0.83900
C2806       C  0.64399630  0.85214338  0.83930469     0.96700
O2807       O  0.64644638  0.82799333  0.82752654    -0.83900
O2808       O  0.62688149  0.77500832  0.80586847    -0.86500
C2809       C  0.61522961  0.77288861  0.76509575     1.01200
O2810       O  0.59709768  0.78869404  0.75354347    -0.79300
O2811       O  0.56139810  0.82802890  0.75426737    -0.79500
C2812       C  0.57728830  0.84617690  0.74155660     1.01100
Cr2813     Cr  0.58553391  0.85049950  0.84308295     1.93700
Cr2814     Cr  0.62133171  0.80191528  0.86020473     1.93200
Cr2815     Cr  0.56925285  0.79833285  0.80020386     1.39100
O2816       O  0.59228146  0.81658423  0.83441076    -1.24500
loop_ 
_geom_bond_atom_site_label_1 
_geom_bond_atom_site_label_2 
_geom_bond_distance 
_geom_bond_site_symmetry_2 
_ccdc_geom_bond_type 
O1          Cr19   1.989       .  S
O1          C361   1.264       .  A
O2          Cr19   1.949       .  S
O2            C3   1.257       .  A
C3            O4   1.266       .  A
C3           C34   1.479       .  S
O4          Cr20   2.035       .  S
O5          Cr20   2.038       .  S
O5            C6   1.270       .  A
C6            O7   1.254       .  A
C6         C1876   1.461   1_455  S
O7          Cr21   1.963       .  S
O8         Cr373   1.998       .  S
O8            C9   1.266   1_556  A
C9          O353   1.264   1_554  A
C9          C201   1.457       .  S
O10         Cr19   2.002       .  S
O10          C18   1.256       .  A
O11         Cr19   1.968       .  S
O11          C12   1.266       .  A
C12          O13   1.273       .  A
C12         C216   1.457       .  S
O13         Cr20   2.029       .  S
O14         Cr20   1.983       .  S
O14          C15   1.261       .  A
C15          O16   1.261       .  A
C15        C1637   1.462   1_455  S
O16         Cr21   1.993       .  S
O17         Cr21   1.993       .  S
O17          C18   1.258       .  A
C18         C336   1.462       .  S
Cr19         O22   1.760       .  S
Cr20         O22   1.788       .  S
Cr21        O360   1.998       .  S
Cr21         O22   1.755       .  S
O23         Cr41   2.002       .  S
O23          C31   1.256       .  A
O24         Cr41   1.968       .  S
O24          C25   1.266       .  A
C25          O26   1.274       .  A
C25         C185   1.458       .  S
O26         Cr42   2.029       .  S
O27         Cr42   1.983       .  S
O27          C28   1.261       .  A
C28          O29   1.262       .  A
C28        C1030   1.462   1_545  S
O29         Cr43   1.993       .  S
O30         Cr43   1.993       .  S
O30          C31   1.258       .  A
C31         C257   1.462       .  S
O32         Cr41   1.989       .  S
O32         C392   1.264       .  A
O33         Cr41   1.950       .  S
O33          C34   1.257       .  A
C34          O35   1.266       .  A
O35         Cr42   2.035       .  S
O36         Cr42   2.037       .  S
O36          C37   1.270       .  A
C37          O38   1.254       .  A
C37        C1137   1.461   1_545  S
O38         Cr43   1.963       .  S
O39        Cr395   1.998       .  S
O39          C40   1.266   1_556  A
C40         O384   1.264   1_554  A
C40         C188   1.458       .  S
Cr41         O44   1.760       .  S
Cr42         O44   1.788       .  S
Cr43        O391   1.998       .  S
Cr43         O44   1.755       .  S
O45         Cr63   1.989       .  S
O45         C405   1.264   1_554  A
O46         Cr63   1.950       .  S
O46          C47   1.257       .  A
C47          O48   1.266       .  A
C47          C78   1.480       .  S
O48         Cr64   2.035       .  S
O49         Cr64   2.037       .  S
O49          C50   1.269       .  A
C50          O51   1.254       .  A
C50        C1898   1.461   1_454  S
O51         Cr65   1.963       .  S
O52        Cr417   1.998       .  S
O52          C53   1.266       .  A
C53         O397   1.264       .  A
C53         C333   1.458       .  S
O54         Cr63   2.002       .  S
O54          C62   1.256       .  A
O55         Cr63   1.968       .  S
O55          C56   1.266       .  A
C56          O57   1.273       .  A
C56         C348   1.458       .  S
O57         Cr64   2.029       .  S
O58         Cr64   1.983       .  S
O58          C59   1.261       .  A
C59          O60   1.262       .  A
C59        C1703   1.462   1_455  S
O60         Cr65   1.993       .  S
O61         Cr65   1.993       .  S
O61          C62   1.258       .  A
C62         C204   1.462       .  S
Cr63         O66   1.760       .  S
Cr64         O66   1.788       .  S
Cr65        O404   1.998       .  S
Cr65         O66   1.754       .  S
O67         Cr85   2.002       .  S
O67          C75   1.256       .  A
O68         Cr85   1.968       .  S
O68          C69   1.266       .  A
C69          O70   1.273       .  A
C69         C317   1.457       .  S
O70         Cr86   2.028       .  S
O71        Cr790   1.983       .  S
O71          C72   1.261   1_565  A
C72          O73   1.261       .  A
C72         C194   1.462       .  S
O73        Cr791   1.993   1_545  S
O74         Cr87   1.993       .  S
O74          C75   1.258       .  A
C75         C279   1.462       .  S
O76         Cr85   1.989       .  S
O76         C436   1.264   1_554  A
O77         Cr85   1.949       .  S
O77          C78   1.257       .  A
C78          O79   1.267       .  A
O79         Cr86   2.035       .  S
O80         Cr86   2.037       .  S
O80          C81   1.270       .  A
C81          O82   1.254       .  A
C81        C1093   1.461   1_554  S
O82         Cr87   1.963       .  S
O83        Cr439   1.998       .  S
O83          C84   1.266       .  A
C84         O428   1.264       .  A
C84         C320   1.457       .  S
Cr85         O88   1.760       .  S
Cr86        O775   1.983       .  S
Cr86         O88   1.788       .  S
Cr87        O777   1.993       .  S
Cr87        O435   1.998       .  S
Cr87         O88   1.755       .  S
O89        Cr107   2.002       .  S
O89          C97   1.256       .  A
O90        Cr107   1.968       .  S
O90          C91   1.266       .  A
C91          O92   1.273       .  A
C91         C251   1.457       .  S
O92        Cr108   2.029       .  S
O93        Cr108   1.983       .  S
O93          C94   1.261       .  A
C94          O95   1.261       .  A
C94         C986   1.462   1_545  S
O95        Cr109   1.993       .  S
O96        Cr109   1.993       .  S
O96          C97   1.258       .  A
C97         C191   1.462       .  S
O98        Cr107   1.989       .  S
O98         C458   1.264   1_554  A
O99        Cr107   1.949       .  S
O99         C100   1.257       .  A
C100        O101   1.266       .  A
C100        C113   1.480       .  S
O101       Cr108   2.035       .  S
O102       Cr108   2.037       .  S
O102        C103   1.270       .  A
C103        O104   1.254       .  A
C103       C1225   1.461   1_544  S
O104       Cr109   1.963       .  S
O105       Cr461   1.998       .  S
O105        C106   1.266       .  A
C106        O450   1.264       .  A
C106        C254   1.457       .  S
Cr107       O110   1.760       .  S
Cr108       O110   1.788       .  S
Cr109       O457   1.998       .  S
Cr109       O110   1.755       .  S
O111       Cr129   1.989       .  S
O111        C471   1.264   1_554  A
O112       Cr129   1.950       .  S
O112        C113   1.257       .  A
C113        O114   1.266       .  A
O114       Cr130   2.035       .  S
O115       Cr130   2.038       .  S
O115        C116   1.270       .  A
C116        O117   1.254       .  A
C116       C1766   1.461   1_554  S
O117       Cr131   1.963       .  S
O118       Cr483   1.998       .  S
O118        C119   1.266       .  A
C119        O463   1.264       .  A
C119        C223   1.457       .  S
O120       Cr129   2.002       .  S
O120        C128   1.256       .  A
O121       Cr129   1.968       .  S
O121        C122   1.266       .  A
C122        O123   1.274       .  A
C122        C238   1.458       .  S
O123       Cr130   2.029       .  S
O124      Cr1538   1.983       .  S
O124        C125   1.261   1_655  A
C125        O126   1.261       .  A
C125        C207   1.462       .  S
O126      Cr1539   1.993   1_455  S
O127       Cr131   1.993       .  S
O127        C128   1.258       .  A
C128        C292   1.462       .  S
Cr129       O132   1.760       .  S
Cr130      O1532   1.983       .  S
Cr130       O132   1.788       .  S
Cr131       O470   1.998       .  S
Cr131      O1534   1.993       .  S
Cr131       O132   1.755       .  S
O133       Cr151   1.989       .  S
O133        C493   1.264       .  A
O134       Cr151   1.949       .  S
O134        C135   1.257       .  A
C135        O136   1.266       .  A
C135        C166   1.479       .  S
O136       Cr152   2.035       .  S
O137       Cr152   2.037       .  S
O137        C138   1.270       .  A
C138        O139   1.254       .  A
C138       C1810   1.461       .  S
O139       Cr153   1.963       .  S
O140       Cr505   1.998       .  S
O140        C141   1.266   1_556  A
C141        O485   1.264   1_554  A
C141        C289   1.457       .  S
O142       Cr151   2.002       .  S
O142        C150   1.256       .  A
O143       Cr151   1.968       .  S
O143        C144   1.266       .  A
C144        O145   1.273       .  A
C144        C304   1.457       .  S
O145       Cr152   2.028       .  S
O146      Cr1560   1.983       .  S
O146        C147   1.261   1_655  A
C147        O148   1.261       .  A
C147        C339   1.462       .  S
O148      Cr1561   1.993   1_455  S
O149       Cr153   1.993       .  S
O149        C150   1.258       .  A
C150        C226   1.462       .  S
Cr151       O154   1.760       .  S
Cr152      O1554   1.983       .  S
Cr152       O154   1.788       .  S
Cr153       O492   1.998       .  S
Cr153      O1556   1.993       .  S
Cr153       O154   1.755       .  S
O155       Cr173   2.002       .  S
O155        C163   1.256       .  A
O156       Cr173   1.968       .  S
O156        C157   1.266       .  A
C157        O158   1.273       .  A
C157        C273   1.458       .  S
O158       Cr174   2.029       .  S
O159       Cr878   1.983       .  S
O159        C160   1.261   1_565  A
C160        O161   1.262       .  A
C160        C260   1.462       .  S
O161       Cr879   1.993   1_545  S
O162       Cr175   1.993       .  S
O162        C163   1.258       .  A
C163        C323   1.462       .  S
O164       Cr173   1.989       .  S
O164        C524   1.264       .  A
O165       Cr173   1.949       .  S
O165        C166   1.257       .  A
C166        O167   1.266       .  A
O167       Cr174   2.035       .  S
O168       Cr174   2.037       .  S
O168        C169   1.269       .  A
C169        O170   1.254       .  A
C169       C1159   1.461       .  S
O170       Cr175   1.963       .  S
O171       Cr527   1.998       .  S
O171        C172   1.266   1_556  A
C172        O516   1.264   1_554  A
C172        C276   1.458       .  S
Cr173       O176   1.760       .  S
Cr174       O863   1.983       .  S
Cr174       O176   1.788       .  S
Cr175       O865   1.993       .  S
Cr175       O523   1.998       .  S
Cr175       O176   1.755       .  S
O177       Cr195   1.989       .  S
O177        C185   1.264       .  A
O178       Cr195   1.949       .  S
O178        C179   1.257       .  A
C179        O180   1.266       .  A
C179        C210   1.479       .  S
O180       Cr196   2.035       .  S
O181       Cr196   2.037       .  S
O181        C182   1.270       .  A
C182        O183   1.254       .  A
C182        C248   1.461       .  S
O183       Cr197   1.963       .  S
O184       Cr197   1.998       .  S
O184        C185   1.266       .  A
O186       Cr195   2.002       .  S
O186        C194   1.256       .  A
O187       Cr195   1.968       .  S
O187        C188   1.266       .  A
C188        O189   1.274       .  A
O189       Cr196   2.029       .  S
O190       Cr196   1.983       .  S
O190        C191   1.261       .  A
C191        O192   1.261       .  A
O192       Cr197   1.993       .  S
O193       Cr197   1.993       .  S
O193        C194   1.258       .  A
Cr195       O198   1.760       .  S
Cr196       O198   1.788       .  S
Cr197       O198   1.754       .  S
O199       Cr217   2.001       .  S
O199        C207   1.256       .  A
O200       Cr217   1.968       .  S
O200        C201   1.266       .  A
C201        O202   1.273       .  A
O202       Cr218   2.028       .  S
O203       Cr218   1.983       .  S
O203        C204   1.261       .  A
C204        O205   1.261       .  A
O205       Cr219   1.993       .  S
O206       Cr219   1.993       .  S
O206        C207   1.258       .  A
O208       Cr217   1.989       .  S
O208        C216   1.264       .  A
O209       Cr217   1.949       .  S
O209        C210   1.257       .  A
C210        O211   1.266       .  A
O211       Cr218   2.035       .  S
O212       Cr218   2.037       .  S
O212        C213   1.270       .  A
C213        O214   1.254       .  A
C213        C345   1.461       .  S
O214       Cr219   1.963       .  S
O215       Cr219   1.998       .  S
O215        C216   1.266       .  A
Cr217       O220   1.760       .  S
Cr218       O220   1.788       .  S
Cr219       O220   1.755       .  S
O221       Cr239   2.002       .  S
O221        C229   1.256       .  A
O222       Cr239   1.968       .  S
O222        C223   1.266       .  A
C223        O224   1.273       .  A
O224       Cr240   2.029       .  S
O225       Cr240   1.983       .  S
O225        C226   1.261       .  A
C226        O227   1.261       .  A
O227       Cr241   1.993       .  S
O228       Cr241   1.993       .  S
O228        C229   1.258       .  A
C229       C1423   1.462       .  S
O230       Cr239   1.989       .  S
O230        C238   1.264       .  A
O231       Cr239   1.949       .  S
O231        C232   1.257       .  A
C232        O233   1.266       .  A
C232        C245   1.479       .  S
O233       Cr240   2.035       .  S
O234       Cr240   2.037       .  S
O234        C235   1.270       .  A
C235        O236   1.254       .  A
C235        C301   1.461       .  S
O236       Cr241   1.963       .  S
O237       Cr241   1.998       .  S
O237        C238   1.266       .  A
Cr239       O242   1.760       .  S
Cr240       O242   1.788       .  S
Cr241       O242   1.755       .  S
O243       Cr261   1.989       .  S
O243        C251   1.264       .  A
O244       Cr261   1.949       .  S
O244        C245   1.257       .  A
C245        O246   1.266       .  A
O246       Cr262   2.035       .  S
O247       Cr262   2.037       .  S
O247        C248   1.270       .  A
C248        O249   1.254       .  A
O249       Cr263   1.963       .  S
O250       Cr263   1.998       .  S
O250        C251   1.266       .  A
O252       Cr261   2.002       .  S
O252        C260   1.256       .  A
O253       Cr261   1.968       .  S
O253        C254   1.266       .  A
C254        O255   1.273       .  A
O255       Cr262   2.028       .  S
O256       Cr262   1.983       .  S
O256        C257   1.261       .  A
C257        O258   1.261       .  A
O258       Cr263   1.993       .  S
O259       Cr263   1.993       .  S
O259        C260   1.258       .  A
Cr261       O264   1.760       .  S
Cr262       O264   1.788       .  S
Cr263       O264   1.755       .  S
O265       Cr283   1.989       .  S
O265        C273   1.264       .  A
O266       Cr283   1.950       .  S
O266        C267   1.257       .  A
C267        O268   1.266       .  A
C267        C298   1.480       .  S
O268       Cr284   2.035       .  S
O269       Cr284   2.037       .  S
O269        C270   1.270       .  A
C270        O271   1.254       .  A
C270        C314   1.461       .  S
O271       Cr285   1.963       .  S
O272       Cr285   1.998       .  S
O272        C273   1.266       .  A
O274       Cr283   2.002       .  S
O274        C282   1.256       .  A
O275       Cr283   1.968       .  S
O275        C276   1.266       .  A
C276        O277   1.274       .  A
O277       Cr284   2.029       .  S
O278       Cr284   1.983       .  S
O278        C279   1.261       .  A
C279        O280   1.261       .  A
O280       Cr285   1.993       .  S
O281       Cr285   1.993       .  S
O281        C282   1.258       .  A
C282        C798   1.462       .  S
Cr283       O286   1.760       .  S
Cr284       O286   1.788       .  S
Cr285       O286   1.755       .  S
O287       Cr305   2.002       .  S
O287        C295   1.256       .  A
O288       Cr305   1.968       .  S
O288        C289   1.266       .  A
C289        O290   1.273       .  A
O290       Cr306   2.029       .  S
O291       Cr306   1.983       .  S
O291        C292   1.261       .  A
C292        O293   1.261       .  A
O293       Cr307   1.993       .  S
O294       Cr307   1.993       .  S
O294        C295   1.258       .  A
C295       C1467   1.462       .  S
O296       Cr305   1.989       .  S
O296        C304   1.264       .  A
O297       Cr305   1.949       .  S
O297        C298   1.257       .  A
C298        O299   1.266       .  A
O299       Cr306   2.035       .  S
O300       Cr306   2.037       .  S
O300        C301   1.270       .  A
C301        O302   1.254       .  A
O302       Cr307   1.963       .  S
O303       Cr307   1.998       .  S
O303        C304   1.266       .  A
Cr305       O308   1.760       .  S
Cr306       O308   1.788       .  S
Cr307       O308   1.755       .  S
O309       Cr327   1.989       .  S
O309        C317   1.264       .  A
O310       Cr327   1.949       .  S
O310        C311   1.257       .  A
C311        O312   1.266       .  A
C311        C342   1.479       .  S
O312       Cr328   2.035       .  S
O313       Cr328   2.038       .  S
O313        C314   1.270       .  A
C314        O315   1.254       .  A
O315       Cr329   1.963       .  S
O316       Cr329   1.998       .  S
O316        C317   1.266       .  A
O318       Cr327   2.002       .  S
O318        C326   1.256       .  A
O319       Cr327   1.968       .  S
O319        C320   1.266       .  A
C320        O321   1.273       .  A
O321       Cr328   2.028       .  S
O322       Cr328   1.983       .  S
O322        C323   1.261       .  A
C323        O324   1.261       .  A
O324       Cr329   1.993       .  S
O325       Cr329   1.993       .  S
O325        C326   1.258       .  A
C326        C732   1.462       .  S
Cr327       O330   1.760       .  S
Cr328       O330   1.788       .  S
Cr329       O330   1.755       .  S
O331       Cr349   2.002       .  S
O331        C339   1.256       .  A
O332       Cr349   1.968       .  S
O332        C333   1.266       .  A
C333        O334   1.274       .  A
O334       Cr350   2.029       .  S
O335       Cr350   1.983       .  S
O335        C336   1.261       .  A
C336        O337   1.262       .  A
O337       Cr351   1.993       .  S
O338       Cr351   1.993       .  S
O338        C339   1.258       .  A
O340       Cr349   1.989       .  S
O340        C348   1.264       .  A
O341       Cr349   1.950       .  S
O341        C342   1.257       .  A
C342        O343   1.266       .  A
O343       Cr350   2.035       .  S
O344       Cr350   2.037       .  S
O344        C345   1.269       .  A
C345        O346   1.254       .  A
O346       Cr351   1.963       .  S
O347       Cr351   1.999       .  S
O347        C348   1.266       .  A
Cr349       O352   1.760       .  S
Cr350       O352   1.787       .  S
Cr351       O352   1.754       .  S
O353       Cr371   1.989       .  S
O354       Cr371   1.949       .  S
O354        C355   1.257       .  A
C355        O356   1.266       .  A
C355        C386   1.479       .  S
O356       Cr372   2.035       .  S
O357       Cr372   2.038       .  S
O357        C358   1.270       .  A
C358        O359   1.254       .  A
C358       C1524   1.461   1_456  S
O359       Cr373   1.963       .  S
O360        C361   1.266       .  A
C361        C553   1.457       .  S
O362       Cr371   2.002       .  S
O362        C370   1.256       .  A
O363       Cr371   1.968       .  S
O363        C364   1.266       .  A
C364        O365   1.273       .  A
C364        C568   1.457       .  S
O365       Cr372   2.029       .  S
O366       Cr372   1.983       .  S
O366        C367   1.261       .  A
C367        O368   1.261       .  A
C367       C1989   1.462   1_455  S
O368       Cr373   1.993       .  S
O369       Cr373   1.993       .  S
O369        C370   1.258       .  A
C370        C688   1.462       .  S
Cr371       O374   1.760       .  S
Cr372       O374   1.788       .  S
Cr373       O374   1.755       .  S
O375       Cr393   2.002       .  S
O375        C383   1.256       .  A
O376       Cr393   1.968       .  S
O376        C377   1.266       .  A
C377        O378   1.274       .  A
C377        C537   1.458       .  S
O378       Cr394   2.029       .  S
O379       Cr394   1.983       .  S
O379        C380   1.261       .  A
C380        O381   1.262       .  A
C380       C1382   1.462   1_545  S
O381       Cr395   1.993       .  S
O382       Cr395   1.993       .  S
O382        C383   1.258       .  A
C383        C609   1.462       .  S
O384       Cr393   1.989       .  S
O385       Cr393   1.950       .  S
O385        C386   1.257       .  A
C386        O387   1.266       .  A
O387       Cr394   2.035       .  S
O388       Cr394   2.037       .  S
O388        C389   1.270       .  A
C389        O390   1.254       .  A
C389        C785   1.461   1_546  S
O390       Cr395   1.963       .  S
O391        C392   1.266       .  A
C392        C540   1.458       .  S
Cr393       O396   1.760       .  S
Cr394       O396   1.788       .  S
Cr395       O396   1.755       .  S
O397       Cr415   1.989       .  S
O398       Cr415   1.950       .  S
O398        C399   1.257       .  A
C399        O400   1.266       .  A
C399        C430   1.480       .  S
O400       Cr416   2.035       .  S
O401       Cr416   2.037       .  S
O401        C402   1.269       .  A
C402        O403   1.254       .  A
C402       C1546   1.461   1_455  S
O403       Cr417   1.963       .  S
O404        C405   1.266   1_554  A
C405        C685   1.458       .  S
O406       Cr415   2.002       .  S
O406        C414   1.256       .  A
O407       Cr415   1.968       .  S
O407        C408   1.266       .  A
C408        O409   1.273       .  A
C408        C700   1.458       .  S
O409       Cr416   2.029       .  S
O410       Cr416   1.983       .  S
O410        C411   1.261       .  A
C411        O412   1.262       .  A
C411       C2055   1.462   1_455  S
O412       Cr417   1.993       .  S
O413       Cr417   1.993       .  S
O413        C414   1.258       .  A
C414        C556   1.462       .  S
Cr415       O418   1.760       .  S
Cr416       O418   1.788       .  S
Cr417       O418   1.754       .  S
O419       Cr437   2.002       .  S
O419        C427   1.256       .  A
O420       Cr437   1.968       .  S
O420        C421   1.266       .  A
C421        O422   1.273       .  A
C421        C669   1.457       .  S
O422       Cr438   2.028       .  S
O423      Cr1142   1.983       .  S
O423        C424   1.261   1_565  A
C424        O425   1.261       .  A
C424        C546   1.462       .  S
O425      Cr1143   1.993   1_545  S
O426       Cr439   1.993       .  S
O426        C427   1.258       .  A
C427        C631   1.462       .  S
O428       Cr437   1.989       .  S
O429       Cr437   1.949       .  S
O429        C430   1.257       .  A
C430        O431   1.267       .  A
O431       Cr438   2.035       .  S
O432       Cr438   2.037       .  S
O432        C433   1.270       .  A
C433        O434   1.254       .  A
C433        C741   1.461       .  S
O434       Cr439   1.963       .  S
O435        C436   1.266   1_554  A
C436        C672   1.457       .  S
Cr437       O440   1.760       .  S
Cr438      O1127   1.983       .  S
Cr438       O440   1.788       .  S
Cr439      O1129   1.993       .  S
Cr439       O440   1.755       .  S
O441       Cr459   2.002       .  S
O441        C449   1.256       .  A
O442       Cr459   1.968       .  S
O442        C443   1.266       .  A
C443        O444   1.273       .  A
C443        C603   1.457       .  S
O444       Cr460   2.029       .  S
O445       Cr460   1.983       .  S
O445        C446   1.261       .  A
C446        O447   1.261       .  A
C446       C1338   1.462   1_545  S
O447       Cr461   1.993       .  S
O448       Cr461   1.993       .  S
O448        C449   1.258       .  A
C449        C543   1.462       .  S
O450       Cr459   1.989       .  S
O451       Cr459   1.949       .  S
O451        C452   1.257       .  A
C452        O453   1.266       .  A
C452        C465   1.480       .  S
O453       Cr460   2.035       .  S
O454       Cr460   2.037       .  S
O454        C455   1.270       .  A
C455        O456   1.254       .  A
C455        C873   1.461   1_545  S
O456       Cr461   1.963       .  S
O457        C458   1.266   1_554  A
C458        C606   1.457       .  S
Cr459       O462   1.760       .  S
Cr460       O462   1.788       .  S
Cr461       O462   1.755       .  S
O463       Cr481   1.989       .  S
O464       Cr481   1.950       .  S
O464        C465   1.257       .  A
C465        O466   1.266       .  A
O466       Cr482   2.035       .  S
O467       Cr482   2.038       .  S
O467        C468   1.270       .  A
C468        O469   1.254       .  A
C468       C1414   1.461       .  S
O469       Cr483   1.963       .  S
O470        C471   1.266   1_554  A
C471        C575   1.457       .  S
O472       Cr481   2.002       .  S
O472        C480   1.256       .  A
O473       Cr481   1.968       .  S
O473        C474   1.266       .  A
C474        O475   1.274       .  A
C474        C590   1.458       .  S
O475       Cr482   2.029       .  S
O476      Cr1890   1.983       .  S
O476        C477   1.261   1_655  A
C477        O478   1.261       .  A
C477        C559   1.462       .  S
O478      Cr1891   1.993   1_455  S
O479       Cr483   1.993       .  S
O479        C480   1.258       .  A
C480        C644   1.462       .  S
Cr481       O484   1.760       .  S
Cr482      O1884   1.983       .  S
Cr482       O484   1.788       .  S
Cr483      O1886   1.993       .  S
Cr483       O484   1.755       .  S
O485       Cr503   1.989       .  S
O486       Cr503   1.949       .  S
O486        C487   1.257       .  A
C487        O488   1.266       .  A
C487        C518   1.479       .  S
O488       Cr504   2.035       .  S
O489       Cr504   2.037       .  S
O489        C490   1.270       .  A
C490        O491   1.254       .  A
C490       C1458   1.461   1_556  S
O491       Cr505   1.963       .  S
O492        C493   1.266       .  A
C493        C641   1.457       .  S
O494       Cr503   2.002       .  S
O494        C502   1.256       .  A
O495       Cr503   1.968       .  S
O495        C496   1.266       .  A
C496        O497   1.273       .  A
C496        C656   1.457       .  S
O497       Cr504   2.028       .  S
O498      Cr1912   1.983       .  S
O498        C499   1.261   1_655  A
C499        O500   1.261       .  A
C499        C691   1.462       .  S
O500      Cr1913   1.993   1_455  S
O501       Cr505   1.993       .  S
O501        C502   1.258       .  A
C502        C578   1.462       .  S
Cr503       O506   1.760       .  S
Cr504      O1906   1.983       .  S
Cr504       O506   1.788       .  S
Cr505      O1908   1.993       .  S
Cr505       O506   1.755       .  S
O507       Cr525   2.002       .  S
O507        C515   1.256       .  A
O508       Cr525   1.968       .  S
O508        C509   1.266       .  A
C509        O510   1.273       .  A
C509        C625   1.458       .  S
O510       Cr526   2.029       .  S
O511      Cr1230   1.983       .  S
O511        C512   1.261   1_565  A
C512        O513   1.262       .  A
C512        C612   1.462       .  S
O513      Cr1231   1.993   1_545  S
O514       Cr527   1.993       .  S
O514        C515   1.258       .  A
C515        C675   1.462       .  S
O516       Cr525   1.989       .  S
O517       Cr525   1.949       .  S
O517        C518   1.257       .  A
C518        O519   1.266       .  A
O519       Cr526   2.035       .  S
O520       Cr526   2.037       .  S
O520        C521   1.269       .  A
C521        O522   1.254       .  A
C521        C807   1.461   1_556  S
O522       Cr527   1.963       .  S
O523        C524   1.266       .  A
C524        C628   1.458       .  S
Cr525       O528   1.760       .  S
Cr526      O1215   1.983       .  S
Cr526       O528   1.788       .  S
Cr527      O1217   1.993       .  S
Cr527       O528   1.755       .  S
O529       Cr547   1.989       .  S
O529        C537   1.264       .  A
O530       Cr547   1.949       .  S
O530        C531   1.257       .  A
C531        O532   1.266       .  A
C531        C562   1.479       .  S
O532       Cr548   2.035       .  S
O533       Cr548   2.037       .  S
O533        C534   1.270       .  A
C534        O535   1.254       .  A
C534        C600   1.461       .  S
O535       Cr549   1.963       .  S
O536       Cr549   1.998       .  S
O536        C537   1.266       .  A
O538       Cr547   2.002       .  S
O538        C546   1.256       .  A
O539       Cr547   1.968       .  S
O539        C540   1.266       .  A
C540        O541   1.274       .  A
O541       Cr548   2.029       .  S
O542       Cr548   1.983       .  S
O542        C543   1.261       .  A
C543        O544   1.261       .  A
O544       Cr549   1.993       .  S
O545       Cr549   1.993       .  S
O545        C546   1.258       .  A
Cr547       O550   1.760       .  S
Cr548       O550   1.788       .  S
Cr549       O550   1.754       .  S
O551       Cr569   2.001       .  S
O551        C559   1.256       .  A
O552       Cr569   1.968       .  S
O552        C553   1.266       .  A
C553        O554   1.273       .  A
O554       Cr570   2.028       .  S
O555       Cr570   1.983       .  S
O555        C556   1.261       .  A
C556        O557   1.261       .  A
O557       Cr571   1.993       .  S
O558       Cr571   1.993       .  S
O558        C559   1.258       .  A
O560       Cr569   1.989       .  S
O560        C568   1.264       .  A
O561       Cr569   1.949       .  S
O561        C562   1.257       .  A
C562        O563   1.266       .  A
O563       Cr570   2.035       .  S
O564       Cr570   2.037       .  S
O564        C565   1.270       .  A
C565        O566   1.254       .  A
C565        C697   1.461       .  S
O566       Cr571   1.963       .  S
O567       Cr571   1.998       .  S
O567        C568   1.266       .  A
Cr569       O572   1.760       .  S
Cr570       O572   1.788       .  S
Cr571       O572   1.755       .  S
O573       Cr591   2.002       .  S
O573        C581   1.256       .  A
O574       Cr591   1.968       .  S
O574        C575   1.266       .  A
C575        O576   1.273       .  A
O576       Cr592   2.029       .  S
O577       Cr592   1.983       .  S
O577        C578   1.261       .  A
C578        O579   1.261       .  A
O579       Cr593   1.993       .  S
O580       Cr593   1.993       .  S
O580        C581   1.258       .  A
C581       C1775   1.462       .  S
O582       Cr591   1.989       .  S
O582        C590   1.264       .  A
O583       Cr591   1.949       .  S
O583        C584   1.257       .  A
C584        O585   1.266       .  A
C584        C597   1.479       .  S
O585       Cr592   2.035       .  S
O586       Cr592   2.037       .  S
O586        C587   1.270       .  A
C587        O588   1.254       .  A
C587        C653   1.461       .  S
O588       Cr593   1.963       .  S
O589       Cr593   1.998       .  S
O589        C590   1.266       .  A
Cr591       O594   1.760       .  S
Cr592       O594   1.788       .  S
Cr593       O594   1.755       .  S
O595       Cr613   1.989       .  S
O595        C603   1.264       .  A
O596       Cr613   1.949       .  S
O596        C597   1.257       .  A
C597        O598   1.266       .  A
O598       Cr614   2.035       .  S
O599       Cr614   2.037       .  S
O599        C600   1.270       .  A
C600        O601   1.254       .  A
O601       Cr615   1.963       .  S
O602       Cr615   1.998       .  S
O602        C603   1.266       .  A
O604       Cr613   2.002       .  S
O604        C612   1.256       .  A
O605       Cr613   1.968       .  S
O605        C606   1.266       .  A
C606        O607   1.273       .  A
O607       Cr614   2.028       .  S
O608       Cr614   1.983       .  S
O608        C609   1.261       .  A
C609        O610   1.261       .  A
O610       Cr615   1.993       .  S
O611       Cr615   1.993       .  S
O611        C612   1.258       .  A
Cr613       O616   1.760       .  S
Cr614       O616   1.788       .  S
Cr615       O616   1.755       .  S
O617       Cr635   1.989       .  S
O617        C625   1.264       .  A
O618       Cr635   1.950       .  S
O618        C619   1.257       .  A
C619        O620   1.266       .  A
C619        C650   1.480       .  S
O620       Cr636   2.035       .  S
O621       Cr636   2.037       .  S
O621        C622   1.270       .  A
C622        O623   1.254       .  A
C622        C666   1.461       .  S
O623       Cr637   1.963       .  S
O624       Cr637   1.998       .  S
O624        C625   1.266       .  A
O626       Cr635   2.002       .  S
O626        C634   1.256       .  A
O627       Cr635   1.968       .  S
O627        C628   1.266       .  A
C628        O629   1.274       .  A
O629       Cr636   2.029       .  S
O630       Cr636   1.983       .  S
O630        C631   1.261       .  A
C631        O632   1.261       .  A
O632       Cr637   1.993       .  S
O633       Cr637   1.993       .  S
O633        C634   1.258       .  A
C634       C1150   1.462       .  S
Cr635       O638   1.760       .  S
Cr636       O638   1.788       .  S
Cr637       O638   1.755       .  S
O639       Cr657   2.002       .  S
O639        C647   1.256       .  A
O640       Cr657   1.968       .  S
O640        C641   1.266       .  A
C641        O642   1.273       .  A
O642       Cr658   2.029       .  S
O643       Cr658   1.983       .  S
O643        C644   1.261       .  A
C644        O645   1.261       .  A
O645       Cr659   1.993       .  S
O646       Cr659   1.993       .  S
O646        C647   1.258       .  A
C647       C1819   1.462       .  S
O648       Cr657   1.989       .  S
O648        C656   1.264       .  A
O649       Cr657   1.949       .  S
O649        C650   1.257       .  A
C650        O651   1.266       .  A
O651       Cr658   2.035       .  S
O652       Cr658   2.037       .  S
O652        C653   1.270       .  A
C653        O654   1.254       .  A
O654       Cr659   1.963       .  S
O655       Cr659   1.998       .  S
O655        C656   1.266       .  A
Cr657       O660   1.760       .  S
Cr658       O660   1.788       .  S
Cr659       O660   1.755       .  S
O661       Cr679   1.989       .  S
O661        C669   1.264       .  A
O662       Cr679   1.949       .  S
O662        C663   1.257       .  A
C663        O664   1.266       .  A
C663        C694   1.479       .  S
O664       Cr680   2.035       .  S
O665       Cr680   2.038       .  S
O665        C666   1.270       .  A
C666        O667   1.254       .  A
O667       Cr681   1.963       .  S
O668       Cr681   1.998       .  S
O668        C669   1.266       .  A
O670       Cr679   2.002       .  S
O670        C678   1.256       .  A
O671       Cr679   1.968       .  S
O671        C672   1.266       .  A
C672        O673   1.273       .  A
O673       Cr680   2.028       .  S
O674       Cr680   1.983       .  S
O674        C675   1.261       .  A
C675        O676   1.261       .  A
O676       Cr681   1.993       .  S
O677       Cr681   1.993       .  S
O677        C678   1.258       .  A
C678       C1084   1.462       .  S
Cr679       O682   1.760       .  S
Cr680       O682   1.788       .  S
Cr681       O682   1.755       .  S
O683       Cr701   2.002       .  S
O683        C691   1.256       .  A
O684       Cr701   1.968       .  S
O684        C685   1.266       .  A
C685        O686   1.274       .  A
O686       Cr702   2.029       .  S
O687       Cr702   1.983       .  S
O687        C688   1.261       .  A
C688        O689   1.262       .  A
O689       Cr703   1.993       .  S
O690       Cr703   1.993       .  S
O690        C691   1.258       .  A
O692       Cr701   1.989       .  S
O692        C700   1.264       .  A
O693       Cr701   1.950       .  S
O693        C694   1.257       .  A
C694        O695   1.266       .  A
O695       Cr702   2.035       .  S
O696       Cr702   2.037       .  S
O696        C697   1.269       .  A
C697        O698   1.254       .  A
O698       Cr703   1.963       .  S
O699       Cr703   1.999       .  S
O699        C700   1.266       .  A
Cr701       O704   1.760       .  S
Cr702       O704   1.787       .  S
Cr703       O704   1.754       .  S
O705       Cr723   1.989       .  S
O705       C1065   1.264       .  A
O706       Cr723   1.949       .  S
O706        C707   1.257       .  A
C707        O708   1.266       .  A
C707        C738   1.479       .  S
O708       Cr724   2.035       .  S
O709       Cr724   2.038       .  S
O709        C710   1.270       .  A
C710        O711   1.254       .  A
C710       C2580   1.461   1_455  S
O711       Cr725   1.963       .  S
O712      Cr1077   1.998       .  S
O712        C713   1.266   1_556  A
C713       O1057   1.264   1_554  A
C713        C905   1.457       .  S
O714       Cr723   2.002       .  S
O714        C722   1.256       .  A
O715       Cr723   1.968       .  S
O715        C716   1.266       .  A
C716        O717   1.273       .  A
C716        C920   1.457       .  S
O717       Cr724   2.029       .  S
O718       Cr724   1.983       .  S
O718        C719   1.261       .  A
C719        O720   1.261       .  A
C719       C2341   1.462   1_455  S
O720       Cr725   1.993       .  S
O721       Cr725   1.993       .  S
O721        C722   1.258       .  A
C722       C1040   1.462       .  S
Cr723       O726   1.760       .  S
Cr724       O726   1.788       .  S
Cr725      O1064   1.998       .  S
Cr725       O726   1.755       .  S
O727       Cr745   2.002       .  S
O727        C735   1.256       .  A
O728       Cr745   1.968       .  S
O728        C729   1.266       .  A
C729        O730   1.274       .  A
C729        C889   1.458       .  S
O730       Cr746   2.029       .  S
O731       Cr746   1.983       .  S
O731        C732   1.261       .  A
C732        O733   1.262       .  A
O733       Cr747   1.993       .  S
O734       Cr747   1.993       .  S
O734        C735   1.258       .  A
C735        C961   1.462       .  S
O736       Cr745   1.989       .  S
O736       C1096   1.264       .  A
O737       Cr745   1.950       .  S
O737        C738   1.257       .  A
C738        O739   1.266       .  A
O739       Cr746   2.035       .  S
O740       Cr746   2.037       .  S
O740        C741   1.270       .  A
C741        O742   1.254       .  A
O742       Cr747   1.963       .  S
O743      Cr1099   1.998       .  S
O743        C744   1.266   1_556  A
C744       O1088   1.264   1_554  A
C744        C892   1.458       .  S
Cr745       O748   1.760       .  S
Cr746       O748   1.788       .  S
Cr747      O1095   1.998       .  S
Cr747       O748   1.755       .  S
O749       Cr767   1.989       .  S
O749       C1109   1.264   1_554  A
O750       Cr767   1.950       .  S
O750        C751   1.257       .  A
C751        O752   1.266       .  A
C751        C782   1.480       .  S
O752       Cr768   2.035       .  S
O753       Cr768   2.037       .  S
O753        C754   1.269       .  A
C754        O755   1.254       .  A
C754       C2602   1.461   1_454  S
O755       Cr769   1.963       .  S
O756      Cr1121   1.998       .  S
O756        C757   1.266       .  A
C757       O1101   1.264       .  A
C757       C1037   1.458       .  S
O758       Cr767   2.002       .  S
O758        C766   1.256       .  A
O759       Cr767   1.968       .  S
O759        C760   1.266       .  A
C760        O761   1.273       .  A
C760       C1052   1.458       .  S
O761       Cr768   2.029       .  S
O762       Cr768   1.983       .  S
O762        C763   1.261       .  A
C763        O764   1.262       .  A
C763       C2407   1.462   1_455  S
O764       Cr769   1.993       .  S
O765       Cr769   1.993       .  S
O765        C766   1.258       .  A
C766        C908   1.462       .  S
Cr767       O770   1.760       .  S
Cr768       O770   1.788       .  S
Cr769      O1108   1.998       .  S
Cr769       O770   1.754       .  S
O771       Cr789   2.002       .  S
O771        C779   1.256       .  A
O772       Cr789   1.968       .  S
O772        C773   1.266       .  A
C773        O774   1.273       .  A
C773       C1021   1.457       .  S
O774       Cr790   2.028       .  S
O775        C776   1.261       .  A
C776        O777   1.261       .  A
C776        C898   1.462       .  S
O778       Cr791   1.993       .  S
O778        C779   1.258       .  A
C779        C983   1.462       .  S
O780       Cr789   1.989       .  S
O780       C1140   1.264   1_554  A
O781       Cr789   1.949       .  S
O781        C782   1.257       .  A
C782        O783   1.267       .  A
O783       Cr790   2.035       .  S
O784       Cr790   2.037       .  S
O784        C785   1.270       .  A
C785        O786   1.254       .  A
O786       Cr791   1.963       .  S
O787      Cr1143   1.998       .  S
O787        C788   1.266       .  A
C788       O1132   1.264       .  A
C788       C1024   1.457       .  S
Cr789       O792   1.760       .  S
Cr790       O792   1.788       .  S
Cr791      O1139   1.998       .  S
Cr791       O792   1.755       .  S
O793       Cr811   2.002       .  S
O793        C801   1.256       .  A
O794       Cr811   1.968       .  S
O794        C795   1.266       .  A
C795        O796   1.273       .  A
C795        C955   1.457       .  S
O796       Cr812   2.029       .  S
O797       Cr812   1.983       .  S
O797        C798   1.261       .  A
C798        O799   1.261       .  A
O799       Cr813   1.993       .  S
O800       Cr813   1.993       .  S
O800        C801   1.258       .  A
C801        C895   1.462       .  S
O802       Cr811   1.989       .  S
O802       C1162   1.264   1_554  A
O803       Cr811   1.949       .  S
O803        C804   1.257       .  A
C804        O805   1.266       .  A
C804        C817   1.480       .  S
O805       Cr812   2.035       .  S
O806       Cr812   2.037       .  S
O806        C807   1.270       .  A
C807        O808   1.254       .  A
O808       Cr813   1.963       .  S
O809      Cr1165   1.998       .  S
O809        C810   1.266       .  A
C810       O1154   1.264       .  A
C810        C958   1.457       .  S
Cr811       O814   1.760       .  S
Cr812       O814   1.788       .  S
Cr813      O1161   1.998       .  S
Cr813       O814   1.755       .  S
O815       Cr833   1.989       .  S
O815       C1175   1.264   1_554  A
O816       Cr833   1.950       .  S
O816        C817   1.257       .  A
C817        O818   1.266       .  A
O818       Cr834   2.035       .  S
O819       Cr834   2.038       .  S
O819        C820   1.270       .  A
C820        O821   1.254       .  A
C820       C2470   1.461   1_554  S
O821       Cr835   1.963       .  S
O822      Cr1187   1.998       .  S
O822        C823   1.266       .  A
C823       O1167   1.264       .  A
C823        C927   1.457       .  S
O824       Cr833   2.002       .  S
O824        C832   1.256       .  A
O825       Cr833   1.968       .  S
O825        C826   1.266       .  A
C826        O827   1.274       .  A
C826        C942   1.458       .  S
O827       Cr834   2.029       .  S
O828      Cr2242   1.983       .  S
O828        C829   1.261   1_655  A
C829        O830   1.261       .  A
C829        C911   1.462       .  S
O830      Cr2243   1.993   1_455  S
O831       Cr835   1.993       .  S
O831        C832   1.258       .  A
C832        C996   1.462       .  S
Cr833       O836   1.760       .  S
Cr834      O2236   1.983       .  S
Cr834       O836   1.788       .  S
Cr835      O1174   1.998       .  S
Cr835      O2238   1.993       .  S
Cr835       O836   1.755       .  S
O837       Cr855   1.989       .  S
O837       C1197   1.264       .  A
O838       Cr855   1.949       .  S
O838        C839   1.257       .  A
C839        O840   1.266       .  A
C839        C870   1.479       .  S
O840       Cr856   2.035       .  S
O841       Cr856   2.037       .  S
O841        C842   1.270       .  A
C842        O843   1.254       .  A
C842       C2514   1.461       .  S
O843       Cr857   1.963       .  S
O844      Cr1209   1.998       .  S
O844        C845   1.266   1_556  A
C845       O1189   1.264   1_554  A
C845        C993   1.457       .  S
O846       Cr855   2.002       .  S
O846        C854   1.256       .  A
O847       Cr855   1.968       .  S
O847        C848   1.266       .  A
C848        O849   1.273       .  A
C848       C1008   1.457       .  S
O849       Cr856   2.028       .  S
O850      Cr2264   1.983       .  S
O850        C851   1.261   1_655  A
C851        O852   1.261       .  A
C851       C1043   1.462       .  S
O852      Cr2265   1.993   1_455  S
O853       Cr857   1.993       .  S
O853        C854   1.258       .  A
C854        C930   1.462       .  S
Cr855       O858   1.760       .  S
Cr856      O2258   1.983       .  S
Cr856       O858   1.788       .  S
Cr857      O1196   1.998       .  S
Cr857      O2260   1.993       .  S
Cr857       O858   1.755       .  S
O859       Cr877   2.002       .  S
O859        C867   1.256       .  A
O860       Cr877   1.968       .  S
O860        C861   1.266       .  A
C861        O862   1.273       .  A
C861        C977   1.458       .  S
O862       Cr878   2.029       .  S
O863        C864   1.261       .  A
C864        O865   1.262       .  A
C864        C964   1.462       .  S
O866       Cr879   1.993       .  S
O866        C867   1.258       .  A
C867       C1027   1.462       .  S
O868       Cr877   1.989       .  S
O868       C1228   1.264       .  A
O869       Cr877   1.949       .  S
O869        C870   1.257       .  A
C870        O871   1.266       .  A
O871       Cr878   2.035       .  S
O872       Cr878   2.037       .  S
O872        C873   1.269       .  A
C873        O874   1.254       .  A
O874       Cr879   1.963       .  S
O875      Cr1231   1.998       .  S
O875        C876   1.266   1_556  A
C876       O1220   1.264   1_554  A
C876        C980   1.458       .  S
Cr877       O880   1.760       .  S
Cr878       O880   1.788       .  S
Cr879      O1227   1.998       .  S
Cr879       O880   1.755       .  S
O881       Cr899   1.989       .  S
O881        C889   1.264       .  A
O882       Cr899   1.949       .  S
O882        C883   1.257       .  A
C883        O884   1.266       .  A
C883        C914   1.479       .  S
O884       Cr900   2.035       .  S
O885       Cr900   2.037       .  S
O885        C886   1.270       .  A
C886        O887   1.254       .  A
C886        C952   1.461       .  S
O887       Cr901   1.963       .  S
O888       Cr901   1.998       .  S
O888        C889   1.266       .  A
O890       Cr899   2.002       .  S
O890        C898   1.256       .  A
O891       Cr899   1.968       .  S
O891        C892   1.266       .  A
C892        O893   1.274       .  A
O893       Cr900   2.029       .  S
O894       Cr900   1.983       .  S
O894        C895   1.261       .  A
C895        O896   1.261       .  A
O896       Cr901   1.993       .  S
O897       Cr901   1.993       .  S
O897        C898   1.258       .  A
Cr899       O902   1.760       .  S
Cr900       O902   1.788       .  S
Cr901       O902   1.754       .  S
O903       Cr921   2.001       .  S
O903        C911   1.256       .  A
O904       Cr921   1.968       .  S
O904        C905   1.266       .  A
C905        O906   1.273       .  A
O906       Cr922   2.028       .  S
O907       Cr922   1.983       .  S
O907        C908   1.261       .  A
C908        O909   1.261       .  A
O909       Cr923   1.993       .  S
O910       Cr923   1.993       .  S
O910        C911   1.258       .  A
O912       Cr921   1.989       .  S
O912        C920   1.264       .  A
O913       Cr921   1.949       .  S
O913        C914   1.257       .  A
C914        O915   1.266       .  A
O915       Cr922   2.035       .  S
O916       Cr922   2.037       .  S
O916        C917   1.270       .  A
C917        O918   1.254       .  A
C917       C1049   1.461       .  S
O918       Cr923   1.963       .  S
O919       Cr923   1.998       .  S
O919        C920   1.266       .  A
Cr921       O924   1.760       .  S
Cr922       O924   1.788       .  S
Cr923       O924   1.755       .  S
O925       Cr943   2.002       .  S
O925        C933   1.256       .  A
O926       Cr943   1.968       .  S
O926        C927   1.266       .  A
C927        O928   1.273       .  A
O928       Cr944   2.029       .  S
O929       Cr944   1.983       .  S
O929        C930   1.261       .  A
C930        O931   1.261       .  A
O931       Cr945   1.993       .  S
O932       Cr945   1.993       .  S
O932        C933   1.258       .  A
C933       C2127   1.462       .  S
O934       Cr943   1.989       .  S
O934        C942   1.264       .  A
O935       Cr943   1.949       .  S
O935        C936   1.257       .  A
C936        O937   1.266       .  A
C936        C949   1.479       .  S
O937       Cr944   2.035       .  S
O938       Cr944   2.037       .  S
O938        C939   1.270       .  A
C939        O940   1.254       .  A
C939       C1005   1.461       .  S
O940       Cr945   1.963       .  S
O941       Cr945   1.998       .  S
O941        C942   1.266       .  A
Cr943       O946   1.760       .  S
Cr944       O946   1.788       .  S
Cr945       O946   1.755       .  S
O947       Cr965   1.989       .  S
O947        C955   1.264       .  A
O948       Cr965   1.949       .  S
O948        C949   1.257       .  A
C949        O950   1.266       .  A
O950       Cr966   2.035       .  S
O951       Cr966   2.037       .  S
O951        C952   1.270       .  A
C952        O953   1.254       .  A
O953       Cr967   1.963       .  S
O954       Cr967   1.998       .  S
O954        C955   1.266       .  A
O956       Cr965   2.002       .  S
O956        C964   1.256       .  A
O957       Cr965   1.968       .  S
O957        C958   1.266       .  A
C958        O959   1.273       .  A
O959       Cr966   2.028       .  S
O960       Cr966   1.983       .  S
O960        C961   1.261       .  A
C961        O962   1.261       .  A
O962       Cr967   1.993       .  S
O963       Cr967   1.993       .  S
O963        C964   1.258       .  A
Cr965       O968   1.760       .  S
Cr966       O968   1.788       .  S
Cr967       O968   1.755       .  S
O969       Cr987   1.989       .  S
O969        C977   1.264       .  A
O970       Cr987   1.950       .  S
O970        C971   1.257       .  A
C971        O972   1.266       .  A
C971       C1002   1.480       .  S
O972       Cr988   2.035       .  S
O973       Cr988   2.037       .  S
O973        C974   1.270       .  A
C974        O975   1.254       .  A
C974       C1018   1.461       .  S
O975       Cr989   1.963       .  S
O976       Cr989   1.998       .  S
O976        C977   1.266       .  A
O978       Cr987   2.002       .  S
O978        C986   1.256       .  A
O979       Cr987   1.968       .  S
O979        C980   1.266       .  A
C980        O981   1.274       .  A
O981       Cr988   2.029       .  S
O982       Cr988   1.983       .  S
O982        C983   1.261       .  A
C983        O984   1.261       .  A
O984       Cr989   1.993       .  S
O985       Cr989   1.993       .  S
O985        C986   1.258       .  A
Cr987       O990   1.760       .  S
Cr988       O990   1.788       .  S
Cr989       O990   1.755       .  S
O991      Cr1009   2.002       .  S
O991        C999   1.256       .  A
O992      Cr1009   1.968       .  S
O992        C993   1.266       .  A
C993        O994   1.273       .  A
O994      Cr1010   2.029       .  S
O995      Cr1010   1.983       .  S
O995        C996   1.261       .  A
C996        O997   1.261       .  A
O997      Cr1011   1.993       .  S
O998      Cr1011   1.993       .  S
O998        C999   1.258       .  A
C999       C2171   1.462       .  S
O1000     Cr1009   1.989       .  S
O1000      C1008   1.264       .  A
O1001     Cr1009   1.949       .  S
O1001      C1002   1.257       .  A
C1002      O1003   1.266       .  A
O1003     Cr1010   2.035       .  S
O1004     Cr1010   2.037       .  S
O1004      C1005   1.270       .  A
C1005      O1006   1.254       .  A
O1006     Cr1011   1.963       .  S
O1007     Cr1011   1.998       .  S
O1007      C1008   1.266       .  A
Cr1009     O1012   1.760       .  S
Cr1010     O1012   1.788       .  S
Cr1011     O1012   1.755       .  S
O1013     Cr1031   1.989       .  S
O1013      C1021   1.264       .  A
O1014     Cr1031   1.949       .  S
O1014      C1015   1.257       .  A
C1015      O1016   1.266       .  A
C1015      C1046   1.479       .  S
O1016     Cr1032   2.035       .  S
O1017     Cr1032   2.038       .  S
O1017      C1018   1.270       .  A
C1018      O1019   1.254       .  A
O1019     Cr1033   1.963       .  S
O1020     Cr1033   1.998       .  S
O1020      C1021   1.266       .  A
O1022     Cr1031   2.002       .  S
O1022      C1030   1.256       .  A
O1023     Cr1031   1.968       .  S
O1023      C1024   1.266       .  A
C1024      O1025   1.273       .  A
O1025     Cr1032   2.028       .  S
O1026     Cr1032   1.983       .  S
O1026      C1027   1.261       .  A
C1027      O1028   1.261       .  A
O1028     Cr1033   1.993       .  S
O1029     Cr1033   1.993       .  S
O1029      C1030   1.258       .  A
Cr1031     O1034   1.760       .  S
Cr1032     O1034   1.788       .  S
Cr1033     O1034   1.755       .  S
O1035     Cr1053   2.002       .  S
O1035      C1043   1.256       .  A
O1036     Cr1053   1.968       .  S
O1036      C1037   1.266       .  A
C1037      O1038   1.274       .  A
O1038     Cr1054   2.029       .  S
O1039     Cr1054   1.983       .  S
O1039      C1040   1.261       .  A
C1040      O1041   1.262       .  A
O1041     Cr1055   1.993       .  S
O1042     Cr1055   1.993       .  S
O1042      C1043   1.258       .  A
O1044     Cr1053   1.989       .  S
O1044      C1052   1.264       .  A
O1045     Cr1053   1.950       .  S
O1045      C1046   1.257       .  A
C1046      O1047   1.266       .  A
O1047     Cr1054   2.035       .  S
O1048     Cr1054   2.037       .  S
O1048      C1049   1.269       .  A
C1049      O1050   1.254       .  A
O1050     Cr1055   1.963       .  S
O1051     Cr1055   1.999       .  S
O1051      C1052   1.266       .  A
Cr1053     O1056   1.760       .  S
Cr1054     O1056   1.787       .  S
Cr1055     O1056   1.754       .  S
O1057     Cr1075   1.989       .  S
O1058     Cr1075   1.949       .  S
O1058      C1059   1.257       .  A
C1059      O1060   1.266       .  A
C1059      C1090   1.479       .  S
O1060     Cr1076   2.035       .  S
O1061     Cr1076   2.038       .  S
O1061      C1062   1.270       .  A
C1062      O1063   1.254       .  A
C1062      C2228   1.461   1_456  S
O1063     Cr1077   1.963       .  S
O1064      C1065   1.266       .  A
C1065      C1257   1.457       .  S
O1066     Cr1075   2.002       .  S
O1066      C1074   1.256       .  A
O1067     Cr1075   1.968       .  S
O1067      C1068   1.266       .  A
C1068      O1069   1.273       .  A
C1068      C1272   1.457       .  S
O1069     Cr1076   2.029       .  S
O1070     Cr1076   1.983       .  S
O1070      C1071   1.261       .  A
C1071      O1072   1.261       .  A
C1071      C2693   1.462   1_455  S
O1072     Cr1077   1.993       .  S
O1073     Cr1077   1.993       .  S
O1073      C1074   1.258       .  A
C1074      C1392   1.462       .  S
Cr1075     O1078   1.760       .  S
Cr1076     O1078   1.788       .  S
Cr1077     O1078   1.755       .  S
O1079     Cr1097   2.002       .  S
O1079      C1087   1.256       .  A
O1080     Cr1097   1.968       .  S
O1080      C1081   1.266       .  A
C1081      O1082   1.274       .  A
C1081      C1241   1.458       .  S
O1082     Cr1098   2.029       .  S
O1083     Cr1098   1.983       .  S
O1083      C1084   1.261       .  A
C1084      O1085   1.262       .  A
O1085     Cr1099   1.993       .  S
O1086     Cr1099   1.993       .  S
O1086      C1087   1.258       .  A
C1087      C1313   1.462       .  S
O1088     Cr1097   1.989       .  S
O1089     Cr1097   1.950       .  S
O1089      C1090   1.257       .  A
C1090      O1091   1.266       .  A
O1091     Cr1098   2.035       .  S
O1092     Cr1098   2.037       .  S
O1092      C1093   1.270       .  A
C1093      O1094   1.254       .  A
O1094     Cr1099   1.963       .  S
O1095      C1096   1.266       .  A
C1096      C1244   1.458       .  S
Cr1097     O1100   1.760       .  S
Cr1098     O1100   1.788       .  S
Cr1099     O1100   1.755       .  S
O1101     Cr1119   1.989       .  S
O1102     Cr1119   1.950       .  S
O1102      C1103   1.257       .  A
C1103      O1104   1.266       .  A
C1103      C1134   1.480       .  S
O1104     Cr1120   2.035       .  S
O1105     Cr1120   2.037       .  S
O1105      C1106   1.269       .  A
C1106      O1107   1.254       .  A
C1106      C2250   1.461   1_455  S
O1107     Cr1121   1.963       .  S
O1108      C1109   1.266   1_554  A
C1109      C1389   1.458       .  S
O1110     Cr1119   2.002       .  S
O1110      C1118   1.256       .  A
O1111     Cr1119   1.968       .  S
O1111      C1112   1.266       .  A
C1112      O1113   1.273       .  A
C1112      C1404   1.458       .  S
O1113     Cr1120   2.029       .  S
O1114     Cr1120   1.983       .  S
O1114      C1115   1.261       .  A
C1115      O1116   1.262       .  A
C1115      C2759   1.462   1_455  S
O1116     Cr1121   1.993       .  S
O1117     Cr1121   1.993       .  S
O1117      C1118   1.258       .  A
C1118      C1260   1.462       .  S
Cr1119     O1122   1.760       .  S
Cr1120     O1122   1.788       .  S
Cr1121     O1122   1.754       .  S
O1123     Cr1141   2.002       .  S
O1123      C1131   1.256       .  A
O1124     Cr1141   1.968       .  S
O1124      C1125   1.266       .  A
C1125      O1126   1.273       .  A
C1125      C1373   1.457       .  S
O1126     Cr1142   2.028       .  S
O1127      C1128   1.261       .  A
C1128      O1129   1.261       .  A
C1128      C1250   1.462       .  S
O1130     Cr1143   1.993       .  S
O1130      C1131   1.258       .  A
C1131      C1335   1.462       .  S
O1132     Cr1141   1.989       .  S
O1133     Cr1141   1.949       .  S
O1133      C1134   1.257       .  A
C1134      O1135   1.267       .  A
O1135     Cr1142   2.035       .  S
O1136     Cr1142   2.037       .  S
O1136      C1137   1.270       .  A
C1137      O1138   1.254       .  A
O1138     Cr1143   1.963       .  S
O1139      C1140   1.266   1_554  A
C1140      C1376   1.457       .  S
Cr1141     O1144   1.760       .  S
Cr1142     O1144   1.788       .  S
Cr1143     O1144   1.755       .  S
O1145     Cr1163   2.002       .  S
O1145      C1153   1.256       .  A
O1146     Cr1163   1.968       .  S
O1146      C1147   1.266       .  A
C1147      O1148   1.273       .  A
C1147      C1307   1.457       .  S
O1148     Cr1164   2.029       .  S
O1149     Cr1164   1.983       .  S
O1149      C1150   1.261       .  A
C1150      O1151   1.261       .  A
O1151     Cr1165   1.993       .  S
O1152     Cr1165   1.993       .  S
O1152      C1153   1.258       .  A
C1153      C1247   1.462       .  S
O1154     Cr1163   1.989       .  S
O1155     Cr1163   1.949       .  S
O1155      C1156   1.257       .  A
C1156      O1157   1.266       .  A
C1156      C1169   1.480       .  S
O1157     Cr1164   2.035       .  S
O1158     Cr1164   2.037       .  S
O1158      C1159   1.270       .  A
C1159      O1160   1.254       .  A
O1160     Cr1165   1.963       .  S
O1161      C1162   1.266   1_554  A
C1162      C1310   1.457       .  S
Cr1163     O1166   1.760       .  S
Cr1164     O1166   1.788       .  S
Cr1165     O1166   1.755       .  S
O1167     Cr1185   1.989       .  S
O1168     Cr1185   1.950       .  S
O1168      C1169   1.257       .  A
C1169      O1170   1.266       .  A
O1170     Cr1186   2.035       .  S
O1171     Cr1186   2.038       .  S
O1171      C1172   1.270       .  A
C1172      O1173   1.254       .  A
C1172      C2118   1.461       .  S
O1173     Cr1187   1.963       .  S
O1174      C1175   1.266   1_554  A
C1175      C1279   1.457       .  S
O1176     Cr1185   2.002       .  S
O1176      C1184   1.256       .  A
O1177     Cr1185   1.968       .  S
O1177      C1178   1.266       .  A
C1178      O1179   1.274       .  A
C1178      C1294   1.458       .  S
O1179     Cr1186   2.029       .  S
O1180     Cr2594   1.983       .  S
O1180      C1181   1.261   1_655  A
C1181      O1182   1.261       .  A
C1181      C1263   1.462       .  S
O1182     Cr2595   1.993   1_455  S
O1183     Cr1187   1.993       .  S
O1183      C1184   1.258       .  A
C1184      C1348   1.462       .  S
Cr1185     O1188   1.760       .  S
Cr1186     O2588   1.983       .  S
Cr1186     O1188   1.788       .  S
Cr1187     O2590   1.993       .  S
Cr1187     O1188   1.755       .  S
O1189     Cr1207   1.989       .  S
O1190     Cr1207   1.949       .  S
O1190      C1191   1.257       .  A
C1191      O1192   1.266       .  A
C1191      C1222   1.479       .  S
O1192     Cr1208   2.035       .  S
O1193     Cr1208   2.037       .  S
O1193      C1194   1.270       .  A
C1194      O1195   1.254       .  A
C1194      C2162   1.461   1_556  S
O1195     Cr1209   1.963       .  S
O1196      C1197   1.266       .  A
C1197      C1345   1.457       .  S
O1198     Cr1207   2.002       .  S
O1198      C1206   1.256       .  A
O1199     Cr1207   1.968       .  S
O1199      C1200   1.266       .  A
C1200      O1201   1.273       .  A
C1200      C1360   1.457       .  S
O1201     Cr1208   2.028       .  S
O1202     Cr2616   1.983       .  S
O1202      C1203   1.261   1_655  A
C1203      O1204   1.261       .  A
C1203      C1395   1.462       .  S
O1204     Cr2617   1.993   1_455  S
O1205     Cr1209   1.993       .  S
O1205      C1206   1.258       .  A
C1206      C1282   1.462       .  S
Cr1207     O1210   1.760       .  S
Cr1208     O2610   1.983       .  S
Cr1208     O1210   1.788       .  S
Cr1209     O2612   1.993       .  S
Cr1209     O1210   1.755       .  S
O1211     Cr1229   2.002       .  S
O1211      C1219   1.256       .  A
O1212     Cr1229   1.968       .  S
O1212      C1213   1.266       .  A
C1213      O1214   1.273       .  A
C1213      C1329   1.458       .  S
O1214     Cr1230   2.029       .  S
O1215      C1216   1.261       .  A
C1216      O1217   1.262       .  A
C1216      C1316   1.462       .  S
O1218     Cr1231   1.993       .  S
O1218      C1219   1.258       .  A
C1219      C1379   1.462       .  S
O1220     Cr1229   1.989       .  S
O1221     Cr1229   1.949       .  S
O1221      C1222   1.257       .  A
C1222      O1223   1.266       .  A
O1223     Cr1230   2.035       .  S
O1224     Cr1230   2.037       .  S
O1224      C1225   1.269       .  A
C1225      O1226   1.254       .  A
O1226     Cr1231   1.963       .  S
O1227      C1228   1.266       .  A
C1228      C1332   1.458       .  S
Cr1229     O1232   1.760       .  S
Cr1230     O1232   1.788       .  S
Cr1231     O1232   1.755       .  S
O1233     Cr1251   1.989       .  S
O1233      C1241   1.264       .  A
O1234     Cr1251   1.949       .  S
O1234      C1235   1.257       .  A
C1235      O1236   1.266       .  A
C1235      C1266   1.479       .  S
O1236     Cr1252   2.035       .  S
O1237     Cr1252   2.037       .  S
O1237      C1238   1.270       .  A
C1238      O1239   1.254       .  A
C1238      C1304   1.461       .  S
O1239     Cr1253   1.963       .  S
O1240     Cr1253   1.998       .  S
O1240      C1241   1.266       .  A
O1242     Cr1251   2.002       .  S
O1242      C1250   1.256       .  A
O1243     Cr1251   1.968       .  S
O1243      C1244   1.266       .  A
C1244      O1245   1.274       .  A
O1245     Cr1252   2.029       .  S
O1246     Cr1252   1.983       .  S
O1246      C1247   1.261       .  A
C1247      O1248   1.261       .  A
O1248     Cr1253   1.993       .  S
O1249     Cr1253   1.993       .  S
O1249      C1250   1.258       .  A
Cr1251     O1254   1.760       .  S
Cr1252     O1254   1.788       .  S
Cr1253     O1254   1.754       .  S
O1255     Cr1273   2.001       .  S
O1255      C1263   1.256       .  A
O1256     Cr1273   1.968       .  S
O1256      C1257   1.266       .  A
C1257      O1258   1.273       .  A
O1258     Cr1274   2.028       .  S
O1259     Cr1274   1.983       .  S
O1259      C1260   1.261       .  A
C1260      O1261   1.261       .  A
O1261     Cr1275   1.993       .  S
O1262     Cr1275   1.993       .  S
O1262      C1263   1.258       .  A
O1264     Cr1273   1.989       .  S
O1264      C1272   1.264       .  A
O1265     Cr1273   1.949       .  S
O1265      C1266   1.257       .  A
C1266      O1267   1.266       .  A
O1267     Cr1274   2.035       .  S
O1268     Cr1274   2.037       .  S
O1268      C1269   1.270       .  A
C1269      O1270   1.254       .  A
C1269      C1401   1.461       .  S
O1270     Cr1275   1.963       .  S
O1271     Cr1275   1.998       .  S
O1271      C1272   1.266       .  A
Cr1273     O1276   1.760       .  S
Cr1274     O1276   1.788       .  S
Cr1275     O1276   1.755       .  S
O1277     Cr1295   2.002       .  S
O1277      C1285   1.256       .  A
O1278     Cr1295   1.968       .  S
O1278      C1279   1.266       .  A
C1279      O1280   1.273       .  A
O1280     Cr1296   2.029       .  S
O1281     Cr1296   1.983       .  S
O1281      C1282   1.261       .  A
C1282      O1283   1.261       .  A
O1283     Cr1297   1.993       .  S
O1284     Cr1297   1.993       .  S
O1284      C1285   1.258       .  A
C1285      C2479   1.462       .  S
O1286     Cr1295   1.989       .  S
O1286      C1294   1.264       .  A
O1287     Cr1295   1.949       .  S
O1287      C1288   1.257       .  A
C1288      O1289   1.266       .  A
C1288      C1301   1.479       .  S
O1289     Cr1296   2.035       .  S
O1290     Cr1296   2.037       .  S
O1290      C1291   1.270       .  A
C1291      O1292   1.254       .  A
C1291      C1357   1.461       .  S
O1292     Cr1297   1.963       .  S
O1293     Cr1297   1.998       .  S
O1293      C1294   1.266       .  A
Cr1295     O1298   1.760       .  S
Cr1296     O1298   1.788       .  S
Cr1297     O1298   1.755       .  S
O1299     Cr1317   1.989       .  S
O1299      C1307   1.264       .  A
O1300     Cr1317   1.949       .  S
O1300      C1301   1.257       .  A
C1301      O1302   1.266       .  A
O1302     Cr1318   2.035       .  S
O1303     Cr1318   2.037       .  S
O1303      C1304   1.270       .  A
C1304      O1305   1.254       .  A
O1305     Cr1319   1.963       .  S
O1306     Cr1319   1.998       .  S
O1306      C1307   1.266       .  A
O1308     Cr1317   2.002       .  S
O1308      C1316   1.256       .  A
O1309     Cr1317   1.968       .  S
O1309      C1310   1.266       .  A
C1310      O1311   1.273       .  A
O1311     Cr1318   2.028       .  S
O1312     Cr1318   1.983       .  S
O1312      C1313   1.261       .  A
C1313      O1314   1.261       .  A
O1314     Cr1319   1.993       .  S
O1315     Cr1319   1.993       .  S
O1315      C1316   1.258       .  A
Cr1317     O1320   1.760       .  S
Cr1318     O1320   1.788       .  S
Cr1319     O1320   1.755       .  S
O1321     Cr1339   1.989       .  S
O1321      C1329   1.264       .  A
O1322     Cr1339   1.950       .  S
O1322      C1323   1.257       .  A
C1323      O1324   1.266       .  A
C1323      C1354   1.480       .  S
O1324     Cr1340   2.035       .  S
O1325     Cr1340   2.037       .  S
O1325      C1326   1.270       .  A
C1326      O1327   1.254       .  A
C1326      C1370   1.461       .  S
O1327     Cr1341   1.963       .  S
O1328     Cr1341   1.998       .  S
O1328      C1329   1.266       .  A
O1330     Cr1339   2.002       .  S
O1330      C1338   1.256       .  A
O1331     Cr1339   1.968       .  S
O1331      C1332   1.266       .  A
C1332      O1333   1.274       .  A
O1333     Cr1340   2.029       .  S
O1334     Cr1340   1.983       .  S
O1334      C1335   1.261       .  A
C1335      O1336   1.261       .  A
O1336     Cr1341   1.993       .  S
O1337     Cr1341   1.993       .  S
O1337      C1338   1.258       .  A
Cr1339     O1342   1.760       .  S
Cr1340     O1342   1.788       .  S
Cr1341     O1342   1.755       .  S
O1343     Cr1361   2.002       .  S
O1343      C1351   1.256       .  A
O1344     Cr1361   1.968       .  S
O1344      C1345   1.266       .  A
C1345      O1346   1.273       .  A
O1346     Cr1362   2.029       .  S
O1347     Cr1362   1.983       .  S
O1347      C1348   1.261       .  A
C1348      O1349   1.261       .  A
O1349     Cr1363   1.993       .  S
O1350     Cr1363   1.993       .  S
O1350      C1351   1.258       .  A
C1351      C2523   1.462       .  S
O1352     Cr1361   1.989       .  S
O1352      C1360   1.264       .  A
O1353     Cr1361   1.949       .  S
O1353      C1354   1.257       .  A
C1354      O1355   1.266       .  A
O1355     Cr1362   2.035       .  S
O1356     Cr1362   2.037       .  S
O1356      C1357   1.270       .  A
C1357      O1358   1.254       .  A
O1358     Cr1363   1.963       .  S
O1359     Cr1363   1.998       .  S
O1359      C1360   1.266       .  A
Cr1361     O1364   1.760       .  S
Cr1362     O1364   1.788       .  S
Cr1363     O1364   1.755       .  S
O1365     Cr1383   1.989       .  S
O1365      C1373   1.264       .  A
O1366     Cr1383   1.949       .  S
O1366      C1367   1.257       .  A
C1367      O1368   1.266       .  A
C1367      C1398   1.479       .  S
O1368     Cr1384   2.035       .  S
O1369     Cr1384   2.038       .  S
O1369      C1370   1.270       .  A
C1370      O1371   1.254       .  A
O1371     Cr1385   1.963       .  S
O1372     Cr1385   1.998       .  S
O1372      C1373   1.266       .  A
O1374     Cr1383   2.002       .  S
O1374      C1382   1.256       .  A
O1375     Cr1383   1.968       .  S
O1375      C1376   1.266       .  A
C1376      O1377   1.273       .  A
O1377     Cr1384   2.028       .  S
O1378     Cr1384   1.983       .  S
O1378      C1379   1.261       .  A
C1379      O1380   1.261       .  A
O1380     Cr1385   1.993       .  S
O1381     Cr1385   1.993       .  S
O1381      C1382   1.258       .  A
Cr1383     O1386   1.760       .  S
Cr1384     O1386   1.788       .  S
Cr1385     O1386   1.755       .  S
O1387     Cr1405   2.002       .  S
O1387      C1395   1.256       .  A
O1388     Cr1405   1.968       .  S
O1388      C1389   1.266       .  A
C1389      O1390   1.274       .  A
O1390     Cr1406   2.029       .  S
O1391     Cr1406   1.983       .  S
O1391      C1392   1.261       .  A
C1392      O1393   1.262       .  A
O1393     Cr1407   1.993       .  S
O1394     Cr1407   1.993       .  S
O1394      C1395   1.258       .  A
O1396     Cr1405   1.989       .  S
O1396      C1404   1.264       .  A
O1397     Cr1405   1.950       .  S
O1397      C1398   1.257       .  A
C1398      O1399   1.266       .  A
O1399     Cr1406   2.035       .  S
O1400     Cr1406   2.037       .  S
O1400      C1401   1.269       .  A
C1401      O1402   1.254       .  A
O1402     Cr1407   1.963       .  S
O1403     Cr1407   1.999       .  S
O1403      C1404   1.266       .  A
Cr1405     O1408   1.760       .  S
Cr1406     O1408   1.787       .  S
Cr1407     O1408   1.754       .  S
O1409     Cr1427   1.989       .  S
O1409      C1769   1.264       .  A
O1410     Cr1427   1.949       .  S
O1410      C1411   1.257       .  A
C1411      O1412   1.266       .  A
C1411      C1442   1.479       .  S
O1412     Cr1428   2.035       .  S
O1413     Cr1428   2.038       .  S
O1413      C1414   1.270       .  A
C1414      O1415   1.254       .  A
O1415     Cr1429   1.963       .  S
O1416     Cr1781   1.998       .  S
O1416      C1417   1.266   1_556  A
C1417      O1761   1.264   1_554  A
C1417      C1609   1.457       .  S
O1418     Cr1427   2.002       .  S
O1418      C1426   1.256       .  A
O1419     Cr1427   1.968       .  S
O1419      C1420   1.266       .  A
C1420      O1421   1.273       .  A
C1420      C1624   1.457       .  S
O1421     Cr1428   2.029       .  S
O1422     Cr1428   1.983       .  S
O1422      C1423   1.261       .  A
C1423      O1424   1.261       .  A
O1424     Cr1429   1.993       .  S
O1425     Cr1429   1.993       .  S
O1425      C1426   1.258       .  A
C1426      C1744   1.462       .  S
Cr1427     O1430   1.760       .  S
Cr1428     O1430   1.788       .  S
Cr1429     O1768   1.998       .  S
Cr1429     O1430   1.755       .  S
O1431     Cr1449   2.002       .  S
O1431      C1439   1.256       .  A
O1432     Cr1449   1.968       .  S
O1432      C1433   1.266       .  A
C1433      O1434   1.274       .  A
C1433      C1593   1.458       .  S
O1434     Cr1450   2.029       .  S
O1435     Cr1450   1.983       .  S
O1435      C1436   1.261       .  A
C1436      O1437   1.262       .  A
C1436      C2438   1.462   1_545  S
O1437     Cr1451   1.993       .  S
O1438     Cr1451   1.993       .  S
O1438      C1439   1.258       .  A
C1439      C1665   1.462       .  S
O1440     Cr1449   1.989       .  S
O1440      C1800   1.264       .  A
O1441     Cr1449   1.950       .  S
O1441      C1442   1.257       .  A
C1442      O1443   1.266       .  A
O1443     Cr1450   2.035       .  S
O1444     Cr1450   2.037       .  S
O1444      C1445   1.270       .  A
C1445      O1446   1.254       .  A
C1445      C2545   1.461   1_545  S
O1446     Cr1451   1.963       .  S
O1447     Cr1803   1.998       .  S
O1447      C1448   1.266   1_556  A
C1448      O1792   1.264   1_554  A
C1448      C1596   1.458       .  S
Cr1449     O1452   1.760       .  S
Cr1450     O1452   1.788       .  S
Cr1451     O1799   1.998       .  S
Cr1451     O1452   1.755       .  S
O1453     Cr1471   1.989       .  S
O1453      C1813   1.264   1_554  A
O1454     Cr1471   1.950       .  S
O1454      C1455   1.257       .  A
C1455      O1456   1.266       .  A
C1455      C1486   1.480       .  S
O1456     Cr1472   2.035       .  S
O1457     Cr1472   2.037       .  S
O1457      C1458   1.269       .  A
C1458      O1459   1.254       .  A
O1459     Cr1473   1.963       .  S
O1460     Cr1825   1.998       .  S
O1460      C1461   1.266       .  A
C1461      O1805   1.264       .  A
C1461      C1741   1.458       .  S
O1462     Cr1471   2.002       .  S
O1462      C1470   1.256       .  A
O1463     Cr1471   1.968       .  S
O1463      C1464   1.266       .  A
C1464      O1465   1.273       .  A
C1464      C1756   1.458       .  S
O1465     Cr1472   2.029       .  S
O1466     Cr1472   1.983       .  S
O1466      C1467   1.261       .  A
C1467      O1468   1.262       .  A
O1468     Cr1473   1.993       .  S
O1469     Cr1473   1.993       .  S
O1469      C1470   1.258       .  A
C1470      C1612   1.462       .  S
Cr1471     O1474   1.760       .  S
Cr1472     O1474   1.788       .  S
Cr1473     O1812   1.998       .  S
Cr1473     O1474   1.754       .  S
O1475     Cr1493   2.002       .  S
O1475      C1483   1.256       .  A
O1476     Cr1493   1.968       .  S
O1476      C1477   1.266       .  A
C1477      O1478   1.273       .  A
C1477      C1725   1.457       .  S
O1478     Cr1494   2.028       .  S
O1479     Cr2198   1.983       .  S
O1479      C1480   1.261   1_565  A
C1480      O1481   1.261       .  A
C1480      C1602   1.462       .  S
O1481     Cr2199   1.993   1_545  S
O1482     Cr1495   1.993       .  S
O1482      C1483   1.258       .  A
C1483      C1687   1.462       .  S
O1484     Cr1493   1.989       .  S
O1484      C1844   1.264   1_554  A
O1485     Cr1493   1.949       .  S
O1485      C1486   1.257       .  A
C1486      O1487   1.267       .  A
O1487     Cr1494   2.035       .  S
O1488     Cr1494   2.037       .  S
O1488      C1489   1.270       .  A
C1489      O1490   1.254       .  A
C1489      C2501   1.461   1_554  S
O1490     Cr1495   1.963       .  S
O1491     Cr1847   1.998       .  S
O1491      C1492   1.266       .  A
C1492      O1836   1.264       .  A
C1492      C1728   1.457       .  S
Cr1493     O1496   1.760       .  S
Cr1494     O2183   1.983       .  S
Cr1494     O1496   1.788       .  S
Cr1495     O2185   1.993       .  S
Cr1495     O1843   1.998       .  S
Cr1495     O1496   1.755       .  S
O1497     Cr1515   2.002       .  S
O1497      C1505   1.256       .  A
O1498     Cr1515   1.968       .  S
O1498      C1499   1.266       .  A
C1499      O1500   1.273       .  A
C1499      C1659   1.457       .  S
O1500     Cr1516   2.029       .  S
O1501     Cr1516   1.983       .  S
O1501      C1502   1.261       .  A
C1502      O1503   1.261       .  A
C1502      C2394   1.462   1_545  S
O1503     Cr1517   1.993       .  S
O1504     Cr1517   1.993       .  S
O1504      C1505   1.258       .  A
C1505      C1599   1.462       .  S
O1506     Cr1515   1.989       .  S
O1506      C1866   1.264   1_554  A
O1507     Cr1515   1.949       .  S
O1507      C1508   1.257       .  A
C1508      O1509   1.266       .  A
C1508      C1521   1.480       .  S
O1509     Cr1516   2.035       .  S
O1510     Cr1516   2.037       .  S
O1510      C1511   1.270       .  A
C1511      O1512   1.254       .  A
C1511      C2633   1.461   1_544  S
O1512     Cr1517   1.963       .  S
O1513     Cr1869   1.998       .  S
O1513      C1514   1.266       .  A
C1514      O1858   1.264       .  A
C1514      C1662   1.457       .  S
Cr1515     O1518   1.760       .  S
Cr1516     O1518   1.788       .  S
Cr1517     O1865   1.998       .  S
Cr1517     O1518   1.755       .  S
O1519     Cr1537   1.989       .  S
O1519      C1879   1.264   1_554  A
O1520     Cr1537   1.950       .  S
O1520      C1521   1.257       .  A
C1521      O1522   1.266       .  A
O1522     Cr1538   2.035       .  S
O1523     Cr1538   2.038       .  S
O1523      C1524   1.270       .  A
C1524      O1525   1.254       .  A
O1525     Cr1539   1.963       .  S
O1526     Cr1891   1.998       .  S
O1526      C1527   1.266       .  A
C1527      O1871   1.264       .  A
C1527      C1631   1.457       .  S
O1528     Cr1537   2.002       .  S
O1528      C1536   1.256       .  A
O1529     Cr1537   1.968       .  S
O1529      C1530   1.266       .  A
C1530      O1531   1.274       .  A
C1530      C1646   1.458       .  S
O1531     Cr1538   2.029       .  S
O1532      C1533   1.261       .  A
C1533      O1534   1.261       .  A
C1533      C1615   1.462       .  S
O1535     Cr1539   1.993       .  S
O1535      C1536   1.258       .  A
C1536      C1700   1.462       .  S
Cr1537     O1540   1.760       .  S
Cr1538     O1540   1.788       .  S
Cr1539     O1878   1.998       .  S
Cr1539     O1540   1.755       .  S
O1541     Cr1559   1.989       .  S
O1541      C1901   1.264       .  A
O1542     Cr1559   1.949       .  S
O1542      C1543   1.257       .  A
C1543      O1544   1.266       .  A
C1543      C1574   1.479       .  S
O1544     Cr1560   2.035       .  S
O1545     Cr1560   2.037       .  S
O1545      C1546   1.270       .  A
C1546      O1547   1.254       .  A
O1547     Cr1561   1.963       .  S
O1548     Cr1913   1.998       .  S
O1548      C1549   1.266   1_556  A
C1549      O1893   1.264   1_554  A
C1549      C1697   1.457       .  S
O1550     Cr1559   2.002       .  S
O1550      C1558   1.256       .  A
O1551     Cr1559   1.968       .  S
O1551      C1552   1.266       .  A
C1552      O1553   1.273       .  A
C1552      C1712   1.457       .  S
O1553     Cr1560   2.028       .  S
O1554      C1555   1.261       .  A
C1555      O1556   1.261       .  A
C1555      C1747   1.462       .  S
O1557     Cr1561   1.993       .  S
O1557      C1558   1.258       .  A
C1558      C1634   1.462       .  S
Cr1559     O1562   1.760       .  S
Cr1560     O1562   1.788       .  S
Cr1561     O1900   1.998       .  S
Cr1561     O1562   1.755       .  S
O1563     Cr1581   2.002       .  S
O1563      C1571   1.256       .  A
O1564     Cr1581   1.968       .  S
O1564      C1565   1.266       .  A
C1565      O1566   1.273       .  A
C1565      C1681   1.458       .  S
O1566     Cr1582   2.029       .  S
O1567     Cr2286   1.983       .  S
O1567      C1568   1.261   1_565  A
C1568      O1569   1.262       .  A
C1568      C1668   1.462       .  S
O1569     Cr2287   1.993   1_545  S
O1570     Cr1583   1.993       .  S
O1570      C1571   1.258       .  A
C1571      C1731   1.462       .  S
O1572     Cr1581   1.989       .  S
O1572      C1932   1.264       .  A
O1573     Cr1581   1.949       .  S
O1573      C1574   1.257       .  A
C1574      O1575   1.266       .  A
O1575     Cr1582   2.035       .  S
O1576     Cr1582   2.037       .  S
O1576      C1577   1.269       .  A
C1577      O1578   1.254       .  A
C1577      C2567   1.461       .  S
O1578     Cr1583   1.963       .  S
O1579     Cr1935   1.998       .  S
O1579      C1580   1.266   1_556  A
C1580      O1924   1.264   1_554  A
C1580      C1684   1.458       .  S
Cr1581     O1584   1.760       .  S
Cr1582     O2271   1.983       .  S
Cr1582     O1584   1.788       .  S
Cr1583     O2273   1.993       .  S
Cr1583     O1931   1.998       .  S
Cr1583     O1584   1.755       .  S
O1585     Cr1603   1.989       .  S
O1585      C1593   1.264       .  A
O1586     Cr1603   1.949       .  S
O1586      C1587   1.257       .  A
C1587      O1588   1.266       .  A
C1587      C1618   1.479       .  S
O1588     Cr1604   2.035       .  S
O1589     Cr1604   2.037       .  S
O1589      C1590   1.270       .  A
C1590      O1591   1.254       .  A
C1590      C1656   1.461       .  S
O1591     Cr1605   1.963       .  S
O1592     Cr1605   1.998       .  S
O1592      C1593   1.266       .  A
O1594     Cr1603   2.002       .  S
O1594      C1602   1.256       .  A
O1595     Cr1603   1.968       .  S
O1595      C1596   1.266       .  A
C1596      O1597   1.274       .  A
O1597     Cr1604   2.029       .  S
O1598     Cr1604   1.983       .  S
O1598      C1599   1.261       .  A
C1599      O1600   1.261       .  A
O1600     Cr1605   1.993       .  S
O1601     Cr1605   1.993       .  S
O1601      C1602   1.258       .  A
Cr1603     O1606   1.760       .  S
Cr1604     O1606   1.788       .  S
Cr1605     O1606   1.754       .  S
O1607     Cr1625   2.001       .  S
O1607      C1615   1.256       .  A
O1608     Cr1625   1.968       .  S
O1608      C1609   1.266       .  A
C1609      O1610   1.273       .  A
O1610     Cr1626   2.028       .  S
O1611     Cr1626   1.983       .  S
O1611      C1612   1.261       .  A
C1612      O1613   1.261       .  A
O1613     Cr1627   1.993       .  S
O1614     Cr1627   1.993       .  S
O1614      C1615   1.258       .  A
O1616     Cr1625   1.989       .  S
O1616      C1624   1.264       .  A
O1617     Cr1625   1.949       .  S
O1617      C1618   1.257       .  A
C1618      O1619   1.266       .  A
O1619     Cr1626   2.035       .  S
O1620     Cr1626   2.037       .  S
O1620      C1621   1.270       .  A
C1621      O1622   1.254       .  A
C1621      C1753   1.461       .  S
O1622     Cr1627   1.963       .  S
O1623     Cr1627   1.998       .  S
O1623      C1624   1.266       .  A
Cr1625     O1628   1.760       .  S
Cr1626     O1628   1.788       .  S
Cr1627     O1628   1.755       .  S
O1629     Cr1647   2.002       .  S
O1629      C1637   1.256       .  A
O1630     Cr1647   1.968       .  S
O1630      C1631   1.266       .  A
C1631      O1632   1.273       .  A
O1632     Cr1648   2.029       .  S
O1633     Cr1648   1.983       .  S
O1633      C1634   1.261       .  A
C1634      O1635   1.261       .  A
O1635     Cr1649   1.993       .  S
O1636     Cr1649   1.993       .  S
O1636      C1637   1.258       .  A
O1638     Cr1647   1.989       .  S
O1638      C1646   1.264       .  A
O1639     Cr1647   1.949       .  S
O1639      C1640   1.257       .  A
C1640      O1641   1.266       .  A
C1640      C1653   1.479       .  S
O1641     Cr1648   2.035       .  S
O1642     Cr1648   2.037       .  S
O1642      C1643   1.270       .  A
C1643      O1644   1.254       .  A
C1643      C1709   1.461       .  S
O1644     Cr1649   1.963       .  S
O1645     Cr1649   1.998       .  S
O1645      C1646   1.266       .  A
Cr1647     O1650   1.760       .  S
Cr1648     O1650   1.788       .  S
Cr1649     O1650   1.755       .  S
O1651     Cr1669   1.989       .  S
O1651      C1659   1.264       .  A
O1652     Cr1669   1.949       .  S
O1652      C1653   1.257       .  A
C1653      O1654   1.266       .  A
O1654     Cr1670   2.035       .  S
O1655     Cr1670   2.037       .  S
O1655      C1656   1.270       .  A
C1656      O1657   1.254       .  A
O1657     Cr1671   1.963       .  S
O1658     Cr1671   1.998       .  S
O1658      C1659   1.266       .  A
O1660     Cr1669   2.002       .  S
O1660      C1668   1.256       .  A
O1661     Cr1669   1.968       .  S
O1661      C1662   1.266       .  A
C1662      O1663   1.273       .  A
O1663     Cr1670   2.028       .  S
O1664     Cr1670   1.983       .  S
O1664      C1665   1.261       .  A
C1665      O1666   1.261       .  A
O1666     Cr1671   1.993       .  S
O1667     Cr1671   1.993       .  S
O1667      C1668   1.258       .  A
Cr1669     O1672   1.760       .  S
Cr1670     O1672   1.788       .  S
Cr1671     O1672   1.755       .  S
O1673     Cr1691   1.989       .  S
O1673      C1681   1.264       .  A
O1674     Cr1691   1.950       .  S
O1674      C1675   1.257       .  A
C1675      O1676   1.266       .  A
C1675      C1706   1.480       .  S
O1676     Cr1692   2.035       .  S
O1677     Cr1692   2.037       .  S
O1677      C1678   1.270       .  A
C1678      O1679   1.254       .  A
C1678      C1722   1.461       .  S
O1679     Cr1693   1.963       .  S
O1680     Cr1693   1.998       .  S
O1680      C1681   1.266       .  A
O1682     Cr1691   2.002       .  S
O1682      C1690   1.256       .  A
O1683     Cr1691   1.968       .  S
O1683      C1684   1.266       .  A
C1684      O1685   1.274       .  A
O1685     Cr1692   2.029       .  S
O1686     Cr1692   1.983       .  S
O1686      C1687   1.261       .  A
C1687      O1688   1.261       .  A
O1688     Cr1693   1.993       .  S
O1689     Cr1693   1.993       .  S
O1689      C1690   1.258       .  A
C1690      C2206   1.462       .  S
Cr1691     O1694   1.760       .  S
Cr1692     O1694   1.788       .  S
Cr1693     O1694   1.755       .  S
O1695     Cr1713   2.002       .  S
O1695      C1703   1.256       .  A
O1696     Cr1713   1.968       .  S
O1696      C1697   1.266       .  A
C1697      O1698   1.273       .  A
O1698     Cr1714   2.029       .  S
O1699     Cr1714   1.983       .  S
O1699      C1700   1.261       .  A
C1700      O1701   1.261       .  A
O1701     Cr1715   1.993       .  S
O1702     Cr1715   1.993       .  S
O1702      C1703   1.258       .  A
O1704     Cr1713   1.989       .  S
O1704      C1712   1.264       .  A
O1705     Cr1713   1.949       .  S
O1705      C1706   1.257       .  A
C1706      O1707   1.266       .  A
O1707     Cr1714   2.035       .  S
O1708     Cr1714   2.037       .  S
O1708      C1709   1.270       .  A
C1709      O1710   1.254       .  A
O1710     Cr1715   1.963       .  S
O1711     Cr1715   1.998       .  S
O1711      C1712   1.266       .  A
Cr1713     O1716   1.760       .  S
Cr1714     O1716   1.788       .  S
Cr1715     O1716   1.755       .  S
O1717     Cr1735   1.989       .  S
O1717      C1725   1.264       .  A
O1718     Cr1735   1.949       .  S
O1718      C1719   1.257       .  A
C1719      O1720   1.266       .  A
C1719      C1750   1.479       .  S
O1720     Cr1736   2.035       .  S
O1721     Cr1736   2.038       .  S
O1721      C1722   1.270       .  A
C1722      O1723   1.254       .  A
O1723     Cr1737   1.963       .  S
O1724     Cr1737   1.998       .  S
O1724      C1725   1.266       .  A
O1726     Cr1735   2.002       .  S
O1726      C1734   1.256       .  A
O1727     Cr1735   1.968       .  S
O1727      C1728   1.266       .  A
C1728      O1729   1.273       .  A
O1729     Cr1736   2.028       .  S
O1730     Cr1736   1.983       .  S
O1730      C1731   1.261       .  A
C1731      O1732   1.261       .  A
O1732     Cr1737   1.993       .  S
O1733     Cr1737   1.993       .  S
O1733      C1734   1.258       .  A
C1734      C2140   1.462       .  S
Cr1735     O1738   1.760       .  S
Cr1736     O1738   1.788       .  S
Cr1737     O1738   1.755       .  S
O1739     Cr1757   2.002       .  S
O1739      C1747   1.256       .  A
O1740     Cr1757   1.968       .  S
O1740      C1741   1.266       .  A
C1741      O1742   1.274       .  A
O1742     Cr1758   2.029       .  S
O1743     Cr1758   1.983       .  S
O1743      C1744   1.261       .  A
C1744      O1745   1.262       .  A
O1745     Cr1759   1.993       .  S
O1746     Cr1759   1.993       .  S
O1746      C1747   1.258       .  A
O1748     Cr1757   1.989       .  S
O1748      C1756   1.264       .  A
O1749     Cr1757   1.950       .  S
O1749      C1750   1.257       .  A
C1750      O1751   1.266       .  A
O1751     Cr1758   2.035       .  S
O1752     Cr1758   2.037       .  S
O1752      C1753   1.269       .  A
C1753      O1754   1.254       .  A
O1754     Cr1759   1.963       .  S
O1755     Cr1759   1.999       .  S
O1755      C1756   1.266       .  A
Cr1757     O1760   1.760       .  S
Cr1758     O1760   1.787       .  S
Cr1759     O1760   1.754       .  S
O1761     Cr1779   1.989       .  S
O1762     Cr1779   1.949       .  S
O1762      C1763   1.257       .  A
C1763      O1764   1.266       .  A
C1763      C1794   1.479       .  S
O1764     Cr1780   2.035       .  S
O1765     Cr1780   2.038       .  S
O1765      C1766   1.270       .  A
C1766      O1767   1.254       .  A
O1767     Cr1781   1.963       .  S
O1768      C1769   1.266       .  A
C1769      C1961   1.457       .  S
O1770     Cr1779   2.002       .  S
O1770      C1778   1.256       .  A
O1771     Cr1779   1.968       .  S
O1771      C1772   1.266       .  A
C1772      O1773   1.273       .  A
C1772      C1976   1.457       .  S
O1773     Cr1780   2.029       .  S
O1774     Cr1780   1.983       .  S
O1774      C1775   1.261       .  A
C1775      O1776   1.261       .  A
O1776     Cr1781   1.993       .  S
O1777     Cr1781   1.993       .  S
O1777      C1778   1.258       .  A
C1778      C2096   1.462       .  S
Cr1779     O1782   1.760       .  S
Cr1780     O1782   1.788       .  S
Cr1781     O1782   1.755       .  S
O1783     Cr1801   2.002       .  S
O1783      C1791   1.256       .  A
O1784     Cr1801   1.968       .  S
O1784      C1785   1.266       .  A
C1785      O1786   1.274       .  A
C1785      C1945   1.458       .  S
O1786     Cr1802   2.029       .  S
O1787     Cr1802   1.983       .  S
O1787      C1788   1.261       .  A
C1788      O1789   1.262       .  A
C1788      C2790   1.462   1_545  S
O1789     Cr1803   1.993       .  S
O1790     Cr1803   1.993       .  S
O1790      C1791   1.258       .  A
C1791      C2017   1.462       .  S
O1792     Cr1801   1.989       .  S
O1793     Cr1801   1.950       .  S
O1793      C1794   1.257       .  A
C1794      O1795   1.266       .  A
O1795     Cr1802   2.035       .  S
O1796     Cr1802   2.037       .  S
O1796      C1797   1.270       .  A
C1797      O1798   1.254       .  A
C1797      C2193   1.461   1_546  S
O1798     Cr1803   1.963       .  S
O1799      C1800   1.266       .  A
C1800      C1948   1.458       .  S
Cr1801     O1804   1.760       .  S
Cr1802     O1804   1.788       .  S
Cr1803     O1804   1.755       .  S
O1805     Cr1823   1.989       .  S
O1806     Cr1823   1.950       .  S
O1806      C1807   1.257       .  A
C1807      O1808   1.266       .  A
C1807      C1838   1.480       .  S
O1808     Cr1824   2.035       .  S
O1809     Cr1824   2.037       .  S
O1809      C1810   1.269       .  A
C1810      O1811   1.254       .  A
O1811     Cr1825   1.963       .  S
O1812      C1813   1.266   1_554  A
C1813      C2093   1.458       .  S
O1814     Cr1823   2.002       .  S
O1814      C1822   1.256       .  A
O1815     Cr1823   1.968       .  S
O1815      C1816   1.266       .  A
C1816      O1817   1.273       .  A
C1816      C2108   1.458       .  S
O1817     Cr1824   2.029       .  S
O1818     Cr1824   1.983       .  S
O1818      C1819   1.261       .  A
C1819      O1820   1.262       .  A
O1820     Cr1825   1.993       .  S
O1821     Cr1825   1.993       .  S
O1821      C1822   1.258       .  A
C1822      C1964   1.462       .  S
Cr1823     O1826   1.760       .  S
Cr1824     O1826   1.788       .  S
Cr1825     O1826   1.754       .  S
O1827     Cr1845   2.002       .  S
O1827      C1835   1.256       .  A
O1828     Cr1845   1.968       .  S
O1828      C1829   1.266       .  A
C1829      O1830   1.273       .  A
C1829      C2077   1.457       .  S
O1830     Cr1846   2.028       .  S
O1831     Cr2550   1.983       .  S
O1831      C1832   1.261   1_565  A
C1832      O1833   1.261       .  A
C1832      C1954   1.462       .  S
O1833     Cr2551   1.993   1_545  S
O1834     Cr1847   1.993       .  S
O1834      C1835   1.258       .  A
C1835      C2039   1.462       .  S
O1836     Cr1845   1.989       .  S
O1837     Cr1845   1.949       .  S
O1837      C1838   1.257       .  A
C1838      O1839   1.267       .  A
O1839     Cr1846   2.035       .  S
O1840     Cr1846   2.037       .  S
O1840      C1841   1.270       .  A
C1841      O1842   1.254       .  A
C1841      C2149   1.461       .  S
O1842     Cr1847   1.963       .  S
O1843      C1844   1.266   1_554  A
C1844      C2080   1.457       .  S
Cr1845     O1848   1.760       .  S
Cr1846     O2535   1.983       .  S
Cr1846     O1848   1.788       .  S
Cr1847     O2537   1.993       .  S
Cr1847     O1848   1.755       .  S
O1849     Cr1867   2.002       .  S
O1849      C1857   1.256       .  A
O1850     Cr1867   1.968       .  S
O1850      C1851   1.266       .  A
C1851      O1852   1.273       .  A
C1851      C2011   1.457       .  S
O1852     Cr1868   2.029       .  S
O1853     Cr1868   1.983       .  S
O1853      C1854   1.261       .  A
C1854      O1855   1.261       .  A
C1854      C2746   1.462   1_545  S
O1855     Cr1869   1.993       .  S
O1856     Cr1869   1.993       .  S
O1856      C1857   1.258       .  A
C1857      C1951   1.462       .  S
O1858     Cr1867   1.989       .  S
O1859     Cr1867   1.949       .  S
O1859      C1860   1.257       .  A
C1860      O1861   1.266       .  A
C1860      C1873   1.480       .  S
O1861     Cr1868   2.035       .  S
O1862     Cr1868   2.037       .  S
O1862      C1863   1.270       .  A
C1863      O1864   1.254       .  A
C1863      C2281   1.461   1_545  S
O1864     Cr1869   1.963       .  S
O1865      C1866   1.266   1_554  A
C1866      C2014   1.457       .  S
Cr1867     O1870   1.760       .  S
Cr1868     O1870   1.788       .  S
Cr1869     O1870   1.755       .  S
O1871     Cr1889   1.989       .  S
O1872     Cr1889   1.950       .  S
O1872      C1873   1.257       .  A
C1873      O1874   1.266       .  A
O1874     Cr1890   2.035       .  S
O1875     Cr1890   2.038       .  S
O1875      C1876   1.270       .  A
C1876      O1877   1.254       .  A
O1877     Cr1891   1.963       .  S
O1878      C1879   1.266   1_554  A
C1879      C1983   1.457       .  S
O1880     Cr1889   2.002       .  S
O1880      C1888   1.256       .  A
O1881     Cr1889   1.968       .  S
O1881      C1882   1.266       .  A
C1882      O1883   1.274       .  A
C1882      C1998   1.458       .  S
O1883     Cr1890   2.029       .  S
O1884      C1885   1.261       .  A
C1885      O1886   1.261       .  A
C1885      C1967   1.462       .  S
O1887     Cr1891   1.993       .  S
O1887      C1888   1.258       .  A
C1888      C2052   1.462       .  S
Cr1889     O1892   1.760       .  S
Cr1890     O1892   1.788       .  S
Cr1891     O1892   1.755       .  S
O1893     Cr1911   1.989       .  S
O1894     Cr1911   1.949       .  S
O1894      C1895   1.257       .  A
C1895      O1896   1.266       .  A
C1895      C1926   1.479       .  S
O1896     Cr1912   2.035       .  S
O1897     Cr1912   2.037       .  S
O1897      C1898   1.270       .  A
C1898      O1899   1.254       .  A
O1899     Cr1913   1.963       .  S
O1900      C1901   1.266       .  A
C1901      C2049   1.457       .  S
O1902     Cr1911   2.002       .  S
O1902      C1910   1.256       .  A
O1903     Cr1911   1.968       .  S
O1903      C1904   1.266       .  A
C1904      O1905   1.273       .  A
C1904      C2064   1.457       .  S
O1905     Cr1912   2.028       .  S
O1906      C1907   1.261       .  A
C1907      O1908   1.261       .  A
C1907      C2099   1.462       .  S
O1909     Cr1913   1.993       .  S
O1909      C1910   1.258       .  A
C1910      C1986   1.462       .  S
Cr1911     O1914   1.760       .  S
Cr1912     O1914   1.788       .  S
Cr1913     O1914   1.755       .  S
O1915     Cr1933   2.002       .  S
O1915      C1923   1.256       .  A
O1916     Cr1933   1.968       .  S
O1916      C1917   1.266       .  A
C1917      O1918   1.273       .  A
C1917      C2033   1.458       .  S
O1918     Cr1934   2.029       .  S
O1919     Cr2638   1.983       .  S
O1919      C1920   1.261   1_565  A
C1920      O1921   1.262       .  A
C1920      C2020   1.462       .  S
O1921     Cr2639   1.993   1_545  S
O1922     Cr1935   1.993       .  S
O1922      C1923   1.258       .  A
C1923      C2083   1.462       .  S
O1924     Cr1933   1.989       .  S
O1925     Cr1933   1.949       .  S
O1925      C1926   1.257       .  A
C1926      O1927   1.266       .  A
O1927     Cr1934   2.035       .  S
O1928     Cr1934   2.037       .  S
O1928      C1929   1.269       .  A
C1929      O1930   1.254       .  A
C1929      C2215   1.461   1_556  S
O1930     Cr1935   1.963       .  S
O1931      C1932   1.266       .  A
C1932      C2036   1.458       .  S
Cr1933     O1936   1.760       .  S
Cr1934     O2623   1.983       .  S
Cr1934     O1936   1.788       .  S
Cr1935     O2625   1.993       .  S
Cr1935     O1936   1.755       .  S
O1937     Cr1955   1.989       .  S
O1937      C1945   1.264       .  A
O1938     Cr1955   1.949       .  S
O1938      C1939   1.257       .  A
C1939      O1940   1.266       .  A
C1939      C1970   1.479       .  S
O1940     Cr1956   2.035       .  S
O1941     Cr1956   2.037       .  S
O1941      C1942   1.270       .  A
C1942      O1943   1.254       .  A
C1942      C2008   1.461       .  S
O1943     Cr1957   1.963       .  S
O1944     Cr1957   1.998       .  S
O1944      C1945   1.266       .  A
O1946     Cr1955   2.002       .  S
O1946      C1954   1.256       .  A
O1947     Cr1955   1.968       .  S
O1947      C1948   1.266       .  A
C1948      O1949   1.274       .  A
O1949     Cr1956   2.029       .  S
O1950     Cr1956   1.983       .  S
O1950      C1951   1.261       .  A
C1951      O1952   1.261       .  A
O1952     Cr1957   1.993       .  S
O1953     Cr1957   1.993       .  S
O1953      C1954   1.258       .  A
Cr1955     O1958   1.760       .  S
Cr1956     O1958   1.788       .  S
Cr1957     O1958   1.754       .  S
O1959     Cr1977   2.001       .  S
O1959      C1967   1.256       .  A
O1960     Cr1977   1.968       .  S
O1960      C1961   1.266       .  A
C1961      O1962   1.273       .  A
O1962     Cr1978   2.028       .  S
O1963     Cr1978   1.983       .  S
O1963      C1964   1.261       .  A
C1964      O1965   1.261       .  A
O1965     Cr1979   1.993       .  S
O1966     Cr1979   1.993       .  S
O1966      C1967   1.258       .  A
O1968     Cr1977   1.989       .  S
O1968      C1976   1.264       .  A
O1969     Cr1977   1.949       .  S
O1969      C1970   1.257       .  A
C1970      O1971   1.266       .  A
O1971     Cr1978   2.035       .  S
O1972     Cr1978   2.037       .  S
O1972      C1973   1.270       .  A
C1973      O1974   1.254       .  A
C1973      C2105   1.461       .  S
O1974     Cr1979   1.963       .  S
O1975     Cr1979   1.998       .  S
O1975      C1976   1.266       .  A
Cr1977     O1980   1.760       .  S
Cr1978     O1980   1.788       .  S
Cr1979     O1980   1.755       .  S
O1981     Cr1999   2.002       .  S
O1981      C1989   1.256       .  A
O1982     Cr1999   1.968       .  S
O1982      C1983   1.266       .  A
C1983      O1984   1.273       .  A
O1984     Cr2000   2.029       .  S
O1985     Cr2000   1.983       .  S
O1985      C1986   1.261       .  A
C1986      O1987   1.261       .  A
O1987     Cr2001   1.993       .  S
O1988     Cr2001   1.993       .  S
O1988      C1989   1.258       .  A
O1990     Cr1999   1.989       .  S
O1990      C1998   1.264       .  A
O1991     Cr1999   1.949       .  S
O1991      C1992   1.257       .  A
C1992      O1993   1.266       .  A
C1992      C2005   1.479       .  S
O1993     Cr2000   2.035       .  S
O1994     Cr2000   2.037       .  S
O1994      C1995   1.270       .  A
C1995      O1996   1.254       .  A
C1995      C2061   1.461       .  S
O1996     Cr2001   1.963       .  S
O1997     Cr2001   1.998       .  S
O1997      C1998   1.266       .  A
Cr1999     O2002   1.760       .  S
Cr2000     O2002   1.788       .  S
Cr2001     O2002   1.755       .  S
O2003     Cr2021   1.989       .  S
O2003      C2011   1.264       .  A
O2004     Cr2021   1.949       .  S
O2004      C2005   1.257       .  A
C2005      O2006   1.266       .  A
O2006     Cr2022   2.035       .  S
O2007     Cr2022   2.037       .  S
O2007      C2008   1.270       .  A
C2008      O2009   1.254       .  A
O2009     Cr2023   1.963       .  S
O2010     Cr2023   1.998       .  S
O2010      C2011   1.266       .  A
O2012     Cr2021   2.002       .  S
O2012      C2020   1.256       .  A
O2013     Cr2021   1.968       .  S
O2013      C2014   1.266       .  A
C2014      O2015   1.273       .  A
O2015     Cr2022   2.028       .  S
O2016     Cr2022   1.983       .  S
O2016      C2017   1.261       .  A
C2017      O2018   1.261       .  A
O2018     Cr2023   1.993       .  S
O2019     Cr2023   1.993       .  S
O2019      C2020   1.258       .  A
Cr2021     O2024   1.760       .  S
Cr2022     O2024   1.788       .  S
Cr2023     O2024   1.755       .  S
O2025     Cr2043   1.989       .  S
O2025      C2033   1.264       .  A
O2026     Cr2043   1.950       .  S
O2026      C2027   1.257       .  A
C2027      O2028   1.266       .  A
C2027      C2058   1.480       .  S
O2028     Cr2044   2.035       .  S
O2029     Cr2044   2.037       .  S
O2029      C2030   1.270       .  A
C2030      O2031   1.254       .  A
C2030      C2074   1.461       .  S
O2031     Cr2045   1.963       .  S
O2032     Cr2045   1.998       .  S
O2032      C2033   1.266       .  A
O2034     Cr2043   2.002       .  S
O2034      C2042   1.256       .  A
O2035     Cr2043   1.968       .  S
O2035      C2036   1.266       .  A
C2036      O2037   1.274       .  A
O2037     Cr2044   2.029       .  S
O2038     Cr2044   1.983       .  S
O2038      C2039   1.261       .  A
C2039      O2040   1.261       .  A
O2040     Cr2045   1.993       .  S
O2041     Cr2045   1.993       .  S
O2041      C2042   1.258       .  A
C2042      C2558   1.462       .  S
Cr2043     O2046   1.760       .  S
Cr2044     O2046   1.788       .  S
Cr2045     O2046   1.755       .  S
O2047     Cr2065   2.002       .  S
O2047      C2055   1.256       .  A
O2048     Cr2065   1.968       .  S
O2048      C2049   1.266       .  A
C2049      O2050   1.273       .  A
O2050     Cr2066   2.029       .  S
O2051     Cr2066   1.983       .  S
O2051      C2052   1.261       .  A
C2052      O2053   1.261       .  A
O2053     Cr2067   1.993       .  S
O2054     Cr2067   1.993       .  S
O2054      C2055   1.258       .  A
O2056     Cr2065   1.989       .  S
O2056      C2064   1.264       .  A
O2057     Cr2065   1.949       .  S
O2057      C2058   1.257       .  A
C2058      O2059   1.266       .  A
O2059     Cr2066   2.035       .  S
O2060     Cr2066   2.037       .  S
O2060      C2061   1.270       .  A
C2061      O2062   1.254       .  A
O2062     Cr2067   1.963       .  S
O2063     Cr2067   1.998       .  S
O2063      C2064   1.266       .  A
Cr2065     O2068   1.760       .  S
Cr2066     O2068   1.788       .  S
Cr2067     O2068   1.755       .  S
O2069     Cr2087   1.989       .  S
O2069      C2077   1.264       .  A
O2070     Cr2087   1.949       .  S
O2070      C2071   1.257       .  A
C2071      O2072   1.266       .  A
C2071      C2102   1.479       .  S
O2072     Cr2088   2.035       .  S
O2073     Cr2088   2.038       .  S
O2073      C2074   1.270       .  A
C2074      O2075   1.254       .  A
O2075     Cr2089   1.963       .  S
O2076     Cr2089   1.998       .  S
O2076      C2077   1.266       .  A
O2078     Cr2087   2.002       .  S
O2078      C2086   1.256       .  A
O2079     Cr2087   1.968       .  S
O2079      C2080   1.266       .  A
C2080      O2081   1.273       .  A
O2081     Cr2088   2.028       .  S
O2082     Cr2088   1.983       .  S
O2082      C2083   1.261       .  A
C2083      O2084   1.261       .  A
O2084     Cr2089   1.993       .  S
O2085     Cr2089   1.993       .  S
O2085      C2086   1.258       .  A
C2086      C2492   1.462       .  S
Cr2087     O2090   1.760       .  S
Cr2088     O2090   1.788       .  S
Cr2089     O2090   1.755       .  S
O2091     Cr2109   2.002       .  S
O2091      C2099   1.256       .  A
O2092     Cr2109   1.968       .  S
O2092      C2093   1.266       .  A
C2093      O2094   1.274       .  A
O2094     Cr2110   2.029       .  S
O2095     Cr2110   1.983       .  S
O2095      C2096   1.261       .  A
C2096      O2097   1.262       .  A
O2097     Cr2111   1.993       .  S
O2098     Cr2111   1.993       .  S
O2098      C2099   1.258       .  A
O2100     Cr2109   1.989       .  S
O2100      C2108   1.264       .  A
O2101     Cr2109   1.950       .  S
O2101      C2102   1.257       .  A
C2102      O2103   1.266       .  A
O2103     Cr2110   2.035       .  S
O2104     Cr2110   2.037       .  S
O2104      C2105   1.269       .  A
C2105      O2106   1.254       .  A
O2106     Cr2111   1.963       .  S
O2107     Cr2111   1.999       .  S
O2107      C2108   1.266       .  A
Cr2109     O2112   1.760       .  S
Cr2110     O2112   1.787       .  S
Cr2111     O2112   1.754       .  S
O2113     Cr2131   1.989       .  S
O2113      C2473   1.264       .  A
O2114     Cr2131   1.949       .  S
O2114      C2115   1.257       .  A
C2115      O2116   1.266       .  A
C2115      C2146   1.479       .  S
O2116     Cr2132   2.035       .  S
O2117     Cr2132   2.038       .  S
O2117      C2118   1.270       .  A
C2118      O2119   1.254       .  A
O2119     Cr2133   1.963       .  S
O2120     Cr2485   1.998       .  S
O2120      C2121   1.266   1_556  A
C2121      O2465   1.264   1_554  A
C2121      C2313   1.457       .  S
O2122     Cr2131   2.002       .  S
O2122      C2130   1.256       .  A
O2123     Cr2131   1.968       .  S
O2123      C2124   1.266       .  A
C2124      O2125   1.273       .  A
C2124      C2328   1.457       .  S
O2125     Cr2132   2.029       .  S
O2126     Cr2132   1.983       .  S
O2126      C2127   1.261       .  A
C2127      O2128   1.261       .  A
O2128     Cr2133   1.993       .  S
O2129     Cr2133   1.993       .  S
O2129      C2130   1.258       .  A
C2130      C2448   1.462       .  S
Cr2131     O2134   1.760       .  S
Cr2132     O2134   1.788       .  S
Cr2133     O2472   1.998       .  S
Cr2133     O2134   1.755       .  S
O2135     Cr2153   2.002       .  S
O2135      C2143   1.256       .  A
O2136     Cr2153   1.968       .  S
O2136      C2137   1.266       .  A
C2137      O2138   1.274       .  A
C2137      C2297   1.458       .  S
O2138     Cr2154   2.029       .  S
O2139     Cr2154   1.983       .  S
O2139      C2140   1.261       .  A
C2140      O2141   1.262       .  A
O2141     Cr2155   1.993       .  S
O2142     Cr2155   1.993       .  S
O2142      C2143   1.258       .  A
C2143      C2369   1.462       .  S
O2144     Cr2153   1.989       .  S
O2144      C2504   1.264       .  A
O2145     Cr2153   1.950       .  S
O2145      C2146   1.257       .  A
C2146      O2147   1.266       .  A
O2147     Cr2154   2.035       .  S
O2148     Cr2154   2.037       .  S
O2148      C2149   1.270       .  A
C2149      O2150   1.254       .  A
O2150     Cr2155   1.963       .  S
O2151     Cr2507   1.998       .  S
O2151      C2152   1.266   1_556  A
C2152      O2496   1.264   1_554  A
C2152      C2300   1.458       .  S
Cr2153     O2156   1.760       .  S
Cr2154     O2156   1.788       .  S
Cr2155     O2503   1.998       .  S
Cr2155     O2156   1.755       .  S
O2157     Cr2175   1.989       .  S
O2157      C2517   1.264   1_554  A
O2158     Cr2175   1.950       .  S
O2158      C2159   1.257       .  A
C2159      O2160   1.266       .  A
C2159      C2190   1.480       .  S
O2160     Cr2176   2.035       .  S
O2161     Cr2176   2.037       .  S
O2161      C2162   1.269       .  A
C2162      O2163   1.254       .  A
O2163     Cr2177   1.963       .  S
O2164     Cr2529   1.998       .  S
O2164      C2165   1.266       .  A
C2165      O2509   1.264       .  A
C2165      C2445   1.458       .  S
O2166     Cr2175   2.002       .  S
O2166      C2174   1.256       .  A
O2167     Cr2175   1.968       .  S
O2167      C2168   1.266       .  A
C2168      O2169   1.273       .  A
C2168      C2460   1.458       .  S
O2169     Cr2176   2.029       .  S
O2170     Cr2176   1.983       .  S
O2170      C2171   1.261       .  A
C2171      O2172   1.262       .  A
O2172     Cr2177   1.993       .  S
O2173     Cr2177   1.993       .  S
O2173      C2174   1.258       .  A
C2174      C2316   1.462       .  S
Cr2175     O2178   1.760       .  S
Cr2176     O2178   1.788       .  S
Cr2177     O2516   1.998       .  S
Cr2177     O2178   1.754       .  S
O2179     Cr2197   2.002       .  S
O2179      C2187   1.256       .  A
O2180     Cr2197   1.968       .  S
O2180      C2181   1.266       .  A
C2181      O2182   1.273       .  A
C2181      C2429   1.457       .  S
O2182     Cr2198   2.028       .  S
O2183      C2184   1.261       .  A
C2184      O2185   1.261       .  A
C2184      C2306   1.462       .  S
O2186     Cr2199   1.993       .  S
O2186      C2187   1.258       .  A
C2187      C2391   1.462       .  S
O2188     Cr2197   1.989       .  S
O2188      C2548   1.264   1_554  A
O2189     Cr2197   1.949       .  S
O2189      C2190   1.257       .  A
C2190      O2191   1.267       .  A
O2191     Cr2198   2.035       .  S
O2192     Cr2198   2.037       .  S
O2192      C2193   1.270       .  A
C2193      O2194   1.254       .  A
O2194     Cr2199   1.963       .  S
O2195     Cr2551   1.998       .  S
O2195      C2196   1.266       .  A
C2196      O2540   1.264       .  A
C2196      C2432   1.457       .  S
Cr2197     O2200   1.760       .  S
Cr2198     O2200   1.788       .  S
Cr2199     O2547   1.998       .  S
Cr2199     O2200   1.755       .  S
O2201     Cr2219   2.002       .  S
O2201      C2209   1.256       .  A
O2202     Cr2219   1.968       .  S
O2202      C2203   1.266       .  A
C2203      O2204   1.273       .  A
C2203      C2363   1.457       .  S
O2204     Cr2220   2.029       .  S
O2205     Cr2220   1.983       .  S
O2205      C2206   1.261       .  A
C2206      O2207   1.261       .  A
O2207     Cr2221   1.993       .  S
O2208     Cr2221   1.993       .  S
O2208      C2209   1.258       .  A
C2209      C2303   1.462       .  S
O2210     Cr2219   1.989       .  S
O2210      C2570   1.264   1_554  A
O2211     Cr2219   1.949       .  S
O2211      C2212   1.257       .  A
C2212      O2213   1.266       .  A
C2212      C2225   1.480       .  S
O2213     Cr2220   2.035       .  S
O2214     Cr2220   2.037       .  S
O2214      C2215   1.270       .  A
C2215      O2216   1.254       .  A
O2216     Cr2221   1.963       .  S
O2217     Cr2573   1.998       .  S
O2217      C2218   1.266       .  A
C2218      O2562   1.264       .  A
C2218      C2366   1.457       .  S
Cr2219     O2222   1.760       .  S
Cr2220     O2222   1.788       .  S
Cr2221     O2569   1.998       .  S
Cr2221     O2222   1.755       .  S
O2223     Cr2241   1.989       .  S
O2223      C2583   1.264   1_554  A
O2224     Cr2241   1.950       .  S
O2224      C2225   1.257       .  A
C2225      O2226   1.266       .  A
O2226     Cr2242   2.035       .  S
O2227     Cr2242   2.038       .  S
O2227      C2228   1.270       .  A
C2228      O2229   1.254       .  A
O2229     Cr2243   1.963       .  S
O2230     Cr2595   1.998       .  S
O2230      C2231   1.266       .  A
C2231      O2575   1.264       .  A
C2231      C2335   1.457       .  S
O2232     Cr2241   2.002       .  S
O2232      C2240   1.256       .  A
O2233     Cr2241   1.968       .  S
O2233      C2234   1.266       .  A
C2234      O2235   1.274       .  A
C2234      C2350   1.458       .  S
O2235     Cr2242   2.029       .  S
O2236      C2237   1.261       .  A
C2237      O2238   1.261       .  A
C2237      C2319   1.462       .  S
O2239     Cr2243   1.993       .  S
O2239      C2240   1.258       .  A
C2240      C2404   1.462       .  S
Cr2241     O2244   1.760       .  S
Cr2242     O2244   1.788       .  S
Cr2243     O2582   1.998       .  S
Cr2243     O2244   1.755       .  S
O2245     Cr2263   1.989       .  S
O2245      C2605   1.264       .  A
O2246     Cr2263   1.949       .  S
O2246      C2247   1.257       .  A
C2247      O2248   1.266       .  A
C2247      C2278   1.479       .  S
O2248     Cr2264   2.035       .  S
O2249     Cr2264   2.037       .  S
O2249      C2250   1.270       .  A
C2250      O2251   1.254       .  A
O2251     Cr2265   1.963       .  S
O2252     Cr2617   1.998       .  S
O2252      C2253   1.266   1_556  A
C2253      O2597   1.264   1_554  A
C2253      C2401   1.457       .  S
O2254     Cr2263   2.002       .  S
O2254      C2262   1.256       .  A
O2255     Cr2263   1.968       .  S
O2255      C2256   1.266       .  A
C2256      O2257   1.273       .  A
C2256      C2416   1.457       .  S
O2257     Cr2264   2.028       .  S
O2258      C2259   1.261       .  A
C2259      O2260   1.261       .  A
C2259      C2451   1.462       .  S
O2261     Cr2265   1.993       .  S
O2261      C2262   1.258       .  A
C2262      C2338   1.462       .  S
Cr2263     O2266   1.760       .  S
Cr2264     O2266   1.788       .  S
Cr2265     O2604   1.998       .  S
Cr2265     O2266   1.755       .  S
O2267     Cr2285   2.002       .  S
O2267      C2275   1.256       .  A
O2268     Cr2285   1.968       .  S
O2268      C2269   1.266       .  A
C2269      O2270   1.273       .  A
C2269      C2385   1.458       .  S
O2270     Cr2286   2.029       .  S
O2271      C2272   1.261       .  A
C2272      O2273   1.262       .  A
C2272      C2372   1.462       .  S
O2274     Cr2287   1.993       .  S
O2274      C2275   1.258       .  A
C2275      C2435   1.462       .  S
O2276     Cr2285   1.989       .  S
O2276      C2636   1.264       .  A
O2277     Cr2285   1.949       .  S
O2277      C2278   1.257       .  A
C2278      O2279   1.266       .  A
O2279     Cr2286   2.035       .  S
O2280     Cr2286   2.037       .  S
O2280      C2281   1.269       .  A
C2281      O2282   1.254       .  A
O2282     Cr2287   1.963       .  S
O2283     Cr2639   1.998       .  S
O2283      C2284   1.266   1_556  A
C2284      O2628   1.264   1_554  A
C2284      C2388   1.458       .  S
Cr2285     O2288   1.760       .  S
Cr2286     O2288   1.788       .  S
Cr2287     O2635   1.998       .  S
Cr2287     O2288   1.755       .  S
O2289     Cr2307   1.989       .  S
O2289      C2297   1.264       .  A
O2290     Cr2307   1.949       .  S
O2290      C2291   1.257       .  A
C2291      O2292   1.266       .  A
C2291      C2322   1.479       .  S
O2292     Cr2308   2.035       .  S
O2293     Cr2308   2.037       .  S
O2293      C2294   1.270       .  A
C2294      O2295   1.254       .  A
C2294      C2360   1.461       .  S
O2295     Cr2309   1.963       .  S
O2296     Cr2309   1.998       .  S
O2296      C2297   1.266       .  A
O2298     Cr2307   2.002       .  S
O2298      C2306   1.256       .  A
O2299     Cr2307   1.968       .  S
O2299      C2300   1.266       .  A
C2300      O2301   1.274       .  A
O2301     Cr2308   2.029       .  S
O2302     Cr2308   1.983       .  S
O2302      C2303   1.261       .  A
C2303      O2304   1.261       .  A
O2304     Cr2309   1.993       .  S
O2305     Cr2309   1.993       .  S
O2305      C2306   1.258       .  A
Cr2307     O2310   1.760       .  S
Cr2308     O2310   1.788       .  S
Cr2309     O2310   1.754       .  S
O2311     Cr2329   2.001       .  S
O2311      C2319   1.256       .  A
O2312     Cr2329   1.968       .  S
O2312      C2313   1.266       .  A
C2313      O2314   1.273       .  A
O2314     Cr2330   2.028       .  S
O2315     Cr2330   1.983       .  S
O2315      C2316   1.261       .  A
C2316      O2317   1.261       .  A
O2317     Cr2331   1.993       .  S
O2318     Cr2331   1.993       .  S
O2318      C2319   1.258       .  A
O2320     Cr2329   1.989       .  S
O2320      C2328   1.264       .  A
O2321     Cr2329   1.949       .  S
O2321      C2322   1.257       .  A
C2322      O2323   1.266       .  A
O2323     Cr2330   2.035       .  S
O2324     Cr2330   2.037       .  S
O2324      C2325   1.270       .  A
C2325      O2326   1.254       .  A
C2325      C2457   1.461       .  S
O2326     Cr2331   1.963       .  S
O2327     Cr2331   1.998       .  S
O2327      C2328   1.266       .  A
Cr2329     O2332   1.760       .  S
Cr2330     O2332   1.788       .  S
Cr2331     O2332   1.755       .  S
O2333     Cr2351   2.002       .  S
O2333      C2341   1.256       .  A
O2334     Cr2351   1.968       .  S
O2334      C2335   1.266       .  A
C2335      O2336   1.273       .  A
O2336     Cr2352   2.029       .  S
O2337     Cr2352   1.983       .  S
O2337      C2338   1.261       .  A
C2338      O2339   1.261       .  A
O2339     Cr2353   1.993       .  S
O2340     Cr2353   1.993       .  S
O2340      C2341   1.258       .  A
O2342     Cr2351   1.989       .  S
O2342      C2350   1.264       .  A
O2343     Cr2351   1.949       .  S
O2343      C2344   1.257       .  A
C2344      O2345   1.266       .  A
C2344      C2357   1.479       .  S
O2345     Cr2352   2.035       .  S
O2346     Cr2352   2.037       .  S
O2346      C2347   1.270       .  A
C2347      O2348   1.254       .  A
C2347      C2413   1.461       .  S
O2348     Cr2353   1.963       .  S
O2349     Cr2353   1.998       .  S
O2349      C2350   1.266       .  A
Cr2351     O2354   1.760       .  S
Cr2352     O2354   1.788       .  S
Cr2353     O2354   1.755       .  S
O2355     Cr2373   1.989       .  S
O2355      C2363   1.264       .  A
O2356     Cr2373   1.949       .  S
O2356      C2357   1.257       .  A
C2357      O2358   1.266       .  A
O2358     Cr2374   2.035       .  S
O2359     Cr2374   2.037       .  S
O2359      C2360   1.270       .  A
C2360      O2361   1.254       .  A
O2361     Cr2375   1.963       .  S
O2362     Cr2375   1.998       .  S
O2362      C2363   1.266       .  A
O2364     Cr2373   2.002       .  S
O2364      C2372   1.256       .  A
O2365     Cr2373   1.968       .  S
O2365      C2366   1.266       .  A
C2366      O2367   1.273       .  A
O2367     Cr2374   2.028       .  S
O2368     Cr2374   1.983       .  S
O2368      C2369   1.261       .  A
C2369      O2370   1.261       .  A
O2370     Cr2375   1.993       .  S
O2371     Cr2375   1.993       .  S
O2371      C2372   1.258       .  A
Cr2373     O2376   1.760       .  S
Cr2374     O2376   1.788       .  S
Cr2375     O2376   1.755       .  S
O2377     Cr2395   1.989       .  S
O2377      C2385   1.264       .  A
O2378     Cr2395   1.950       .  S
O2378      C2379   1.257       .  A
C2379      O2380   1.266       .  A
C2379      C2410   1.480       .  S
O2380     Cr2396   2.035       .  S
O2381     Cr2396   2.037       .  S
O2381      C2382   1.270       .  A
C2382      O2383   1.254       .  A
C2382      C2426   1.461       .  S
O2383     Cr2397   1.963       .  S
O2384     Cr2397   1.998       .  S
O2384      C2385   1.266       .  A
O2386     Cr2395   2.002       .  S
O2386      C2394   1.256       .  A
O2387     Cr2395   1.968       .  S
O2387      C2388   1.266       .  A
C2388      O2389   1.274       .  A
O2389     Cr2396   2.029       .  S
O2390     Cr2396   1.983       .  S
O2390      C2391   1.261       .  A
C2391      O2392   1.261       .  A
O2392     Cr2397   1.993       .  S
O2393     Cr2397   1.993       .  S
O2393      C2394   1.258       .  A
Cr2395     O2398   1.760       .  S
Cr2396     O2398   1.788       .  S
Cr2397     O2398   1.755       .  S
O2399     Cr2417   2.002       .  S
O2399      C2407   1.256       .  A
O2400     Cr2417   1.968       .  S
O2400      C2401   1.266       .  A
C2401      O2402   1.273       .  A
O2402     Cr2418   2.029       .  S
O2403     Cr2418   1.983       .  S
O2403      C2404   1.261       .  A
C2404      O2405   1.261       .  A
O2405     Cr2419   1.993       .  S
O2406     Cr2419   1.993       .  S
O2406      C2407   1.258       .  A
O2408     Cr2417   1.989       .  S
O2408      C2416   1.264       .  A
O2409     Cr2417   1.949       .  S
O2409      C2410   1.257       .  A
C2410      O2411   1.266       .  A
O2411     Cr2418   2.035       .  S
O2412     Cr2418   2.037       .  S
O2412      C2413   1.270       .  A
C2413      O2414   1.254       .  A
O2414     Cr2419   1.963       .  S
O2415     Cr2419   1.998       .  S
O2415      C2416   1.266       .  A
Cr2417     O2420   1.760       .  S
Cr2418     O2420   1.788       .  S
Cr2419     O2420   1.755       .  S
O2421     Cr2439   1.989       .  S
O2421      C2429   1.264       .  A
O2422     Cr2439   1.949       .  S
O2422      C2423   1.257       .  A
C2423      O2424   1.266       .  A
C2423      C2454   1.479       .  S
O2424     Cr2440   2.035       .  S
O2425     Cr2440   2.038       .  S
O2425      C2426   1.270       .  A
C2426      O2427   1.254       .  A
O2427     Cr2441   1.963       .  S
O2428     Cr2441   1.998       .  S
O2428      C2429   1.266       .  A
O2430     Cr2439   2.002       .  S
O2430      C2438   1.256       .  A
O2431     Cr2439   1.968       .  S
O2431      C2432   1.266       .  A
C2432      O2433   1.273       .  A
O2433     Cr2440   2.028       .  S
O2434     Cr2440   1.983       .  S
O2434      C2435   1.261       .  A
C2435      O2436   1.261       .  A
O2436     Cr2441   1.993       .  S
O2437     Cr2441   1.993       .  S
O2437      C2438   1.258       .  A
Cr2439     O2442   1.760       .  S
Cr2440     O2442   1.788       .  S
Cr2441     O2442   1.755       .  S
O2443     Cr2461   2.002       .  S
O2443      C2451   1.256       .  A
O2444     Cr2461   1.968       .  S
O2444      C2445   1.266       .  A
C2445      O2446   1.274       .  A
O2446     Cr2462   2.029       .  S
O2447     Cr2462   1.983       .  S
O2447      C2448   1.261       .  A
C2448      O2449   1.262       .  A
O2449     Cr2463   1.993       .  S
O2450     Cr2463   1.993       .  S
O2450      C2451   1.258       .  A
O2452     Cr2461   1.989       .  S
O2452      C2460   1.264       .  A
O2453     Cr2461   1.950       .  S
O2453      C2454   1.257       .  A
C2454      O2455   1.266       .  A
O2455     Cr2462   2.035       .  S
O2456     Cr2462   2.037       .  S
O2456      C2457   1.269       .  A
C2457      O2458   1.254       .  A
O2458     Cr2463   1.963       .  S
O2459     Cr2463   1.999       .  S
O2459      C2460   1.266       .  A
Cr2461     O2464   1.760       .  S
Cr2462     O2464   1.787       .  S
Cr2463     O2464   1.754       .  S
O2465     Cr2483   1.989       .  S
O2466     Cr2483   1.949       .  S
O2466      C2467   1.257       .  A
C2467      O2468   1.266       .  A
C2467      C2498   1.479       .  S
O2468     Cr2484   2.035       .  S
O2469     Cr2484   2.038       .  S
O2469      C2470   1.270       .  A
C2470      O2471   1.254       .  A
O2471     Cr2485   1.963       .  S
O2472      C2473   1.266       .  A
C2473      C2665   1.457       .  S
O2474     Cr2483   2.002       .  S
O2474      C2482   1.256       .  A
O2475     Cr2483   1.968       .  S
O2475      C2476   1.266       .  A
C2476      O2477   1.273       .  A
C2476      C2680   1.457       .  S
O2477     Cr2484   2.029       .  S
O2478     Cr2484   1.983       .  S
O2478      C2479   1.261       .  A
C2479      O2480   1.261       .  A
O2480     Cr2485   1.993       .  S
O2481     Cr2485   1.993       .  S
O2481      C2482   1.258       .  A
C2482      C2800   1.462       .  S
Cr2483     O2486   1.760       .  S
Cr2484     O2486   1.788       .  S
Cr2485     O2486   1.755       .  S
O2487     Cr2505   2.002       .  S
O2487      C2495   1.256       .  A
O2488     Cr2505   1.968       .  S
O2488      C2489   1.266       .  A
C2489      O2490   1.274       .  A
C2489      C2649   1.458       .  S
O2490     Cr2506   2.029       .  S
O2491     Cr2506   1.983       .  S
O2491      C2492   1.261       .  A
C2492      O2493   1.262       .  A
O2493     Cr2507   1.993       .  S
O2494     Cr2507   1.993       .  S
O2494      C2495   1.258       .  A
C2495      C2721   1.462       .  S
O2496     Cr2505   1.989       .  S
O2497     Cr2505   1.950       .  S
O2497      C2498   1.257       .  A
C2498      O2499   1.266       .  A
O2499     Cr2506   2.035       .  S
O2500     Cr2506   2.037       .  S
O2500      C2501   1.270       .  A
C2501      O2502   1.254       .  A
O2502     Cr2507   1.963       .  S
O2503      C2504   1.266       .  A
C2504      C2652   1.458       .  S
Cr2505     O2508   1.760       .  S
Cr2506     O2508   1.788       .  S
Cr2507     O2508   1.755       .  S
O2509     Cr2527   1.989       .  S
O2510     Cr2527   1.950       .  S
O2510      C2511   1.257       .  A
C2511      O2512   1.266       .  A
C2511      C2542   1.480       .  S
O2512     Cr2528   2.035       .  S
O2513     Cr2528   2.037       .  S
O2513      C2514   1.269       .  A
C2514      O2515   1.254       .  A
O2515     Cr2529   1.963       .  S
O2516      C2517   1.266   1_554  A
C2517      C2797   1.458       .  S
O2518     Cr2527   2.002       .  S
O2518      C2526   1.256       .  A
O2519     Cr2527   1.968       .  S
O2519      C2520   1.266       .  A
C2520      O2521   1.273       .  A
C2520      C2812   1.458       .  S
O2521     Cr2528   2.029       .  S
O2522     Cr2528   1.983       .  S
O2522      C2523   1.261       .  A
C2523      O2524   1.262       .  A
O2524     Cr2529   1.993       .  S
O2525     Cr2529   1.993       .  S
O2525      C2526   1.258       .  A
C2526      C2668   1.462       .  S
Cr2527     O2530   1.760       .  S
Cr2528     O2530   1.788       .  S
Cr2529     O2530   1.754       .  S
O2531     Cr2549   2.002       .  S
O2531      C2539   1.256       .  A
O2532     Cr2549   1.968       .  S
O2532      C2533   1.266       .  A
C2533      O2534   1.273       .  A
C2533      C2781   1.457       .  S
O2534     Cr2550   2.028       .  S
O2535      C2536   1.261       .  A
C2536      O2537   1.261       .  A
C2536      C2658   1.462       .  S
O2538     Cr2551   1.993       .  S
O2538      C2539   1.258       .  A
C2539      C2743   1.462       .  S
O2540     Cr2549   1.989       .  S
O2541     Cr2549   1.949       .  S
O2541      C2542   1.257       .  A
C2542      O2543   1.267       .  A
O2543     Cr2550   2.035       .  S
O2544     Cr2550   2.037       .  S
O2544      C2545   1.270       .  A
C2545      O2546   1.254       .  A
O2546     Cr2551   1.963       .  S
O2547      C2548   1.266   1_554  A
C2548      C2784   1.457       .  S
Cr2549     O2552   1.760       .  S
Cr2550     O2552   1.788       .  S
Cr2551     O2552   1.755       .  S
O2553     Cr2571   2.002       .  S
O2553      C2561   1.256       .  A
O2554     Cr2571   1.968       .  S
O2554      C2555   1.266       .  A
C2555      O2556   1.273       .  A
C2555      C2715   1.457       .  S
O2556     Cr2572   2.029       .  S
O2557     Cr2572   1.983       .  S
O2557      C2558   1.261       .  A
C2558      O2559   1.261       .  A
O2559     Cr2573   1.993       .  S
O2560     Cr2573   1.993       .  S
O2560      C2561   1.258       .  A
C2561      C2655   1.462       .  S
O2562     Cr2571   1.989       .  S
O2563     Cr2571   1.949       .  S
O2563      C2564   1.257       .  A
C2564      O2565   1.266       .  A
C2564      C2577   1.480       .  S
O2565     Cr2572   2.035       .  S
O2566     Cr2572   2.037       .  S
O2566      C2567   1.270       .  A
C2567      O2568   1.254       .  A
O2568     Cr2573   1.963       .  S
O2569      C2570   1.266   1_554  A
C2570      C2718   1.457       .  S
Cr2571     O2574   1.760       .  S
Cr2572     O2574   1.788       .  S
Cr2573     O2574   1.755       .  S
O2575     Cr2593   1.989       .  S
O2576     Cr2593   1.950       .  S
O2576      C2577   1.257       .  A
C2577      O2578   1.266       .  A
O2578     Cr2594   2.035       .  S
O2579     Cr2594   2.038       .  S
O2579      C2580   1.270       .  A
C2580      O2581   1.254       .  A
O2581     Cr2595   1.963       .  S
O2582      C2583   1.266   1_554  A
C2583      C2687   1.457       .  S
O2584     Cr2593   2.002       .  S
O2584      C2592   1.256       .  A
O2585     Cr2593   1.968       .  S
O2585      C2586   1.266       .  A
C2586      O2587   1.274       .  A
C2586      C2702   1.458       .  S
O2587     Cr2594   2.029       .  S
O2588      C2589   1.261       .  A
C2589      O2590   1.261       .  A
C2589      C2671   1.462       .  S
O2591     Cr2595   1.993       .  S
O2591      C2592   1.258       .  A
C2592      C2756   1.462       .  S
Cr2593     O2596   1.760       .  S
Cr2594     O2596   1.788       .  S
Cr2595     O2596   1.755       .  S
O2597     Cr2615   1.989       .  S
O2598     Cr2615   1.949       .  S
O2598      C2599   1.257       .  A
C2599      O2600   1.266       .  A
C2599      C2630   1.479       .  S
O2600     Cr2616   2.035       .  S
O2601     Cr2616   2.037       .  S
O2601      C2602   1.270       .  A
C2602      O2603   1.254       .  A
O2603     Cr2617   1.963       .  S
O2604      C2605   1.266       .  A
C2605      C2753   1.457       .  S
O2606     Cr2615   2.002       .  S
O2606      C2614   1.256       .  A
O2607     Cr2615   1.968       .  S
O2607      C2608   1.266       .  A
C2608      O2609   1.273       .  A
C2608      C2768   1.457       .  S
O2609     Cr2616   2.028       .  S
O2610      C2611   1.261       .  A
C2611      O2612   1.261       .  A
C2611      C2803   1.462       .  S
O2613     Cr2617   1.993       .  S
O2613      C2614   1.258       .  A
C2614      C2690   1.462       .  S
Cr2615     O2618   1.760       .  S
Cr2616     O2618   1.788       .  S
Cr2617     O2618   1.755       .  S
O2619     Cr2637   2.002       .  S
O2619      C2627   1.256       .  A
O2620     Cr2637   1.968       .  S
O2620      C2621   1.266       .  A
C2621      O2622   1.273       .  A
C2621      C2737   1.458       .  S
O2622     Cr2638   2.029       .  S
O2623      C2624   1.261       .  A
C2624      O2625   1.262       .  A
C2624      C2724   1.462       .  S
O2626     Cr2639   1.993       .  S
O2626      C2627   1.258       .  A
C2627      C2787   1.462       .  S
O2628     Cr2637   1.989       .  S
O2629     Cr2637   1.949       .  S
O2629      C2630   1.257       .  A
C2630      O2631   1.266       .  A
O2631     Cr2638   2.035       .  S
O2632     Cr2638   2.037       .  S
O2632      C2633   1.269       .  A
C2633      O2634   1.254       .  A
O2634     Cr2639   1.963       .  S
O2635      C2636   1.266       .  A
C2636      C2740   1.458       .  S
Cr2637     O2640   1.760       .  S
Cr2638     O2640   1.788       .  S
Cr2639     O2640   1.755       .  S
O2641     Cr2659   1.989       .  S
O2641      C2649   1.264       .  A
O2642     Cr2659   1.949       .  S
O2642      C2643   1.257       .  A
C2643      O2644   1.266       .  A
C2643      C2674   1.479       .  S
O2644     Cr2660   2.035       .  S
O2645     Cr2660   2.037       .  S
O2645      C2646   1.270       .  A
C2646      O2647   1.254       .  A
C2646      C2712   1.461       .  S
O2647     Cr2661   1.963       .  S
O2648     Cr2661   1.998       .  S
O2648      C2649   1.266       .  A
O2650     Cr2659   2.002       .  S
O2650      C2658   1.256       .  A
O2651     Cr2659   1.968       .  S
O2651      C2652   1.266       .  A
C2652      O2653   1.274       .  A
O2653     Cr2660   2.029       .  S
O2654     Cr2660   1.983       .  S
O2654      C2655   1.261       .  A
C2655      O2656   1.261       .  A
O2656     Cr2661   1.993       .  S
O2657     Cr2661   1.993       .  S
O2657      C2658   1.258       .  A
Cr2659     O2662   1.760       .  S
Cr2660     O2662   1.788       .  S
Cr2661     O2662   1.754       .  S
O2663     Cr2681   2.001       .  S
O2663      C2671   1.256       .  A
O2664     Cr2681   1.968       .  S
O2664      C2665   1.266       .  A
C2665      O2666   1.273       .  A
O2666     Cr2682   2.028       .  S
O2667     Cr2682   1.983       .  S
O2667      C2668   1.261       .  A
C2668      O2669   1.261       .  A
O2669     Cr2683   1.993       .  S
O2670     Cr2683   1.993       .  S
O2670      C2671   1.258       .  A
O2672     Cr2681   1.989       .  S
O2672      C2680   1.264       .  A
O2673     Cr2681   1.949       .  S
O2673      C2674   1.257       .  A
C2674      O2675   1.266       .  A
O2675     Cr2682   2.035       .  S
O2676     Cr2682   2.037       .  S
O2676      C2677   1.270       .  A
C2677      O2678   1.254       .  A
C2677      C2809   1.461       .  S
O2678     Cr2683   1.963       .  S
O2679     Cr2683   1.998       .  S
O2679      C2680   1.266       .  A
Cr2681     O2684   1.760       .  S
Cr2682     O2684   1.788       .  S
Cr2683     O2684   1.755       .  S
O2685     Cr2703   2.002       .  S
O2685      C2693   1.256       .  A
O2686     Cr2703   1.968       .  S
O2686      C2687   1.266       .  A
C2687      O2688   1.273       .  A
O2688     Cr2704   2.029       .  S
O2689     Cr2704   1.983       .  S
O2689      C2690   1.261       .  A
C2690      O2691   1.261       .  A
O2691     Cr2705   1.993       .  S
O2692     Cr2705   1.993       .  S
O2692      C2693   1.258       .  A
O2694     Cr2703   1.989       .  S
O2694      C2702   1.264       .  A
O2695     Cr2703   1.949       .  S
O2695      C2696   1.257       .  A
C2696      O2697   1.266       .  A
C2696      C2709   1.479       .  S
O2697     Cr2704   2.035       .  S
O2698     Cr2704   2.037       .  S
O2698      C2699   1.270       .  A
C2699      O2700   1.254       .  A
C2699      C2765   1.461       .  S
O2700     Cr2705   1.963       .  S
O2701     Cr2705   1.998       .  S
O2701      C2702   1.266       .  A
Cr2703     O2706   1.760       .  S
Cr2704     O2706   1.788       .  S
Cr2705     O2706   1.755       .  S
O2707     Cr2725   1.989       .  S
O2707      C2715   1.264       .  A
O2708     Cr2725   1.949       .  S
O2708      C2709   1.257       .  A
C2709      O2710   1.266       .  A
O2710     Cr2726   2.035       .  S
O2711     Cr2726   2.037       .  S
O2711      C2712   1.270       .  A
C2712      O2713   1.254       .  A
O2713     Cr2727   1.963       .  S
O2714     Cr2727   1.998       .  S
O2714      C2715   1.266       .  A
O2716     Cr2725   2.002       .  S
O2716      C2724   1.256       .  A
O2717     Cr2725   1.968       .  S
O2717      C2718   1.266       .  A
C2718      O2719   1.273       .  A
O2719     Cr2726   2.028       .  S
O2720     Cr2726   1.983       .  S
O2720      C2721   1.261       .  A
C2721      O2722   1.261       .  A
O2722     Cr2727   1.993       .  S
O2723     Cr2727   1.993       .  S
O2723      C2724   1.258       .  A
Cr2725     O2728   1.760       .  S
Cr2726     O2728   1.788       .  S
Cr2727     O2728   1.755       .  S
O2729     Cr2747   1.989       .  S
O2729      C2737   1.264       .  A
O2730     Cr2747   1.950       .  S
O2730      C2731   1.257       .  A
C2731      O2732   1.266       .  A
C2731      C2762   1.480       .  S
O2732     Cr2748   2.035       .  S
O2733     Cr2748   2.037       .  S
O2733      C2734   1.270       .  A
C2734      O2735   1.254       .  A
C2734      C2778   1.461       .  S
O2735     Cr2749   1.963       .  S
O2736     Cr2749   1.998       .  S
O2736      C2737   1.266       .  A
O2738     Cr2747   2.002       .  S
O2738      C2746   1.256       .  A
O2739     Cr2747   1.968       .  S
O2739      C2740   1.266       .  A
C2740      O2741   1.274       .  A
O2741     Cr2748   2.029       .  S
O2742     Cr2748   1.983       .  S
O2742      C2743   1.261       .  A
C2743      O2744   1.261       .  A
O2744     Cr2749   1.993       .  S
O2745     Cr2749   1.993       .  S
O2745      C2746   1.258       .  A
Cr2747     O2750   1.760       .  S
Cr2748     O2750   1.788       .  S
Cr2749     O2750   1.755       .  S
O2751     Cr2769   2.002       .  S
O2751      C2759   1.256       .  A
O2752     Cr2769   1.968       .  S
O2752      C2753   1.266       .  A
C2753      O2754   1.273       .  A
O2754     Cr2770   2.029       .  S
O2755     Cr2770   1.983       .  S
O2755      C2756   1.261       .  A
C2756      O2757   1.261       .  A
O2757     Cr2771   1.993       .  S
O2758     Cr2771   1.993       .  S
O2758      C2759   1.258       .  A
O2760     Cr2769   1.989       .  S
O2760      C2768   1.264       .  A
O2761     Cr2769   1.949       .  S
O2761      C2762   1.257       .  A
C2762      O2763   1.266       .  A
O2763     Cr2770   2.035       .  S
O2764     Cr2770   2.037       .  S
O2764      C2765   1.270       .  A
C2765      O2766   1.254       .  A
O2766     Cr2771   1.963       .  S
O2767     Cr2771   1.998       .  S
O2767      C2768   1.266       .  A
Cr2769     O2772   1.760       .  S
Cr2770     O2772   1.788       .  S
Cr2771     O2772   1.755       .  S
O2773     Cr2791   1.989       .  S
O2773      C2781   1.264       .  A
O2774     Cr2791   1.949       .  S
O2774      C2775   1.257       .  A
C2775      O2776   1.266       .  A
C2775      C2806   1.479       .  S
O2776     Cr2792   2.035       .  S
O2777     Cr2792   2.038       .  S
O2777      C2778   1.270       .  A
C2778      O2779   1.254       .  A
O2779     Cr2793   1.963       .  S
O2780     Cr2793   1.998       .  S
O2780      C2781   1.266       .  A
O2782     Cr2791   2.002       .  S
O2782      C2790   1.256       .  A
O2783     Cr2791   1.968       .  S
O2783      C2784   1.266       .  A
C2784      O2785   1.273       .  A
O2785     Cr2792   2.028       .  S
O2786     Cr2792   1.983       .  S
O2786      C2787   1.261       .  A
C2787      O2788   1.261       .  A
O2788     Cr2793   1.993       .  S
O2789     Cr2793   1.993       .  S
O2789      C2790   1.258       .  A
Cr2791     O2794   1.760       .  S
Cr2792     O2794   1.788       .  S
Cr2793     O2794   1.755       .  S
O2795     Cr2813   2.002       .  S
O2795      C2803   1.256       .  A
O2796     Cr2813   1.968       .  S
O2796      C2797   1.266       .  A
C2797      O2798   1.274       .  A
O2798     Cr2814   2.029       .  S
O2799     Cr2814   1.983       .  S
O2799      C2800   1.261       .  A
C2800      O2801   1.262       .  A
O2801     Cr2815   1.993       .  S
O2802     Cr2815   1.993       .  S
O2802      C2803   1.258       .  A
O2804     Cr2813   1.989       .  S
O2804      C2812   1.264       .  A
O2805     Cr2813   1.950       .  S
O2805      C2806   1.257       .  A
C2806      O2807   1.266       .  A
O2807     Cr2814   2.035       .  S
O2808     Cr2814   2.037       .  S
O2808      C2809   1.269       .  A
C2809      O2810   1.254       .  A
O2810     Cr2815   1.963       .  S
O2811     Cr2815   1.999       .  S
O2811      C2812   1.266       .  A
Cr2813     O2816   1.760       .  S
Cr2814     O2816   1.787       .  S
Cr2815     O2816   1.754       .  S
