geometry optimzed in LAMMPS
_audit_creation_date              2020-11-30 
_audit_creation_method            'lammps2cif' 
_symmetry_space_group_name_H-M    'P1' 
_symmetry_Int_Tables_number       1 
_symmetry_cell_setting            triclinic 
loop_ 
_symmetry_equiv_pos_as_xyz 
  x,y,z 
_cell_length_a                    45.95905718925433 
_cell_length_b                    46.03254166336815 
_cell_length_c                    27.5333205587949 
_cell_angle_alpha                 89.46460471765944 
_cell_angle_beta                  89.95861844775288 
_cell_angle_gamma                 89.85174476849936 
loop_ 
_atom_site_label 
_atom_site_type_symbol 
_atom_site_fract_x 
_atom_site_fract_y 
_atom_site_fract_z 
_atom_site_charge 
Zn1        Zn  0.60713543  0.56342760  0.35312747     1.49720
Zn2        Zn  0.64914235  0.61633405  0.38015556     1.49360
Zn3        Zn  0.58954177  0.61696898  0.43049389     1.49110
Zn4        Zn  0.63309456  0.56906872  0.45714538     1.49480
O5          O  0.61863377  0.59116435  0.40345654    -1.84250
O6          O  0.63555553  0.56794769  0.29237772    -0.74880
O7          O  0.63956194  0.65824693  0.37905929    -0.74700
O8          O  0.55393543  0.60886499  0.39429565    -0.74220
O9          O  0.66263378  0.60538068  0.31534485    -0.74900
O10         O  0.56408835  0.57481604  0.33861154    -0.74500
O11         O  0.59869879  0.65945443  0.42149373    -0.75080
O12         O  0.62406634  0.58828012  0.52095368    -0.74470
O13         O  0.68234071  0.61308188  0.42420702    -0.75230
O14         O  0.58456757  0.61399580  0.50331341    -0.74620
O15         O  0.67542460  0.56810127  0.45155744    -0.75080
O16         O  0.62073843  0.52764077  0.45832415    -0.74990
O17         O  0.60946716  0.52038967  0.38083332    -0.74780
C18         C  0.65624833  0.58617936  0.28446140     0.77010
C19         C  0.61950592  0.67229023  0.39999926     0.77500
C20         C  0.54660058  0.59295032  0.35881739     0.76460
C21         C  0.60318638  0.60468536  0.53386066     0.76830
C22         C  0.69071776  0.59083579  0.44770640     0.77970
C23         C  0.61426449  0.51062865  0.42396219     0.77020
Zn24       Zn  0.85978881  0.61446682  0.67611769     1.49720
Zn25       Zn  0.87336111  0.57258904  0.58164911     1.49360
Zn26       Zn  0.81968109  0.55927056  0.64897247     1.49110
Zn27       Zn  0.82283993  0.61506377  0.58512473     1.49480
O28         O  0.84583363  0.58953614  0.62455662    -1.84250
O29         O  0.90458847  0.61039091  0.67574355    -0.74880
O30         O  0.86618597  0.52860572  0.57755350    -0.74700
O31         O  0.80713729  0.56846776  0.71795936    -0.74220
O32         O  0.91247170  0.58505128  0.60759895    -0.74900
O33         O  0.83477648  0.60637736  0.73796581    -0.74500
O34         O  0.83144867  0.51757694  0.63046126    -0.75080
O35         O  0.78371199  0.61174757  0.61082279    -0.74470
O36         O  0.86828902  0.58805262  0.51191313    -0.75230
O37         O  0.78405008  0.56405539  0.61007293    -0.74620
O38         O  0.82387875  0.60640057  0.51457274    -0.75080
O39         O  0.83266749  0.65624172  0.58761463    -0.74990
O40         O  0.85200950  0.65775508  0.66099217    -0.74780
C41         C  0.92177825  0.60018295  0.64315505     0.77010
C42         C  0.84892153  0.50990096  0.59674859     0.77500
C43         C  0.81342738  0.58915213  0.74684476     0.76460
C44         C  0.77229686  0.58807711  0.59853709     0.76830
C45         C  0.84627498  0.59921700  0.49041355     0.77970
C46         C  0.84217235  0.67049406  0.62307024     0.77020
Zn47       Zn  0.86228304  0.61453674  0.09176071     1.49720
Zn48       Zn  0.86902588  0.58724624  0.19097753     1.49360
Zn49       Zn  0.81553223  0.62771813  0.18290866     1.49110
Zn50       Zn  0.81411547  0.56887808  0.12731345     1.49480
O51         O  0.83939234  0.60065630  0.14679588    -1.84250
O52         O  0.90652725  0.61178504  0.10329432    -0.74880
O53         O  0.86004840  0.59481978  0.25962911    -0.74700
O54         O  0.82348944  0.66617684  0.15073448    -0.74220
O55         O  0.90928314  0.60021497  0.18111587    -0.74900
O56         O  0.85226851  0.65761892  0.08609281    -0.74500
O57         O  0.82565641  0.62845442  0.25584582    -0.75080
O58         O  0.77083917  0.57493716  0.14172303    -0.74470
O59         O  0.87108424  0.54564442  0.18406736    -0.75230
O60         O  0.77252346  0.61593659  0.18345255    -0.74620
O61         O  0.82400853  0.53717015  0.17263438    -0.75080
O62         O  0.82413718  0.55478521  0.05948165    -0.74990
O63         O  0.85667231  0.58724656  0.03309201    -0.74780
C64         C  0.92146500  0.60618985  0.14122008     0.77010
C65         C  0.84278059  0.61219376  0.28048355     0.77500
C66         C  0.83811796  0.67492225  0.11383692     0.76460
C67         C  0.75845141  0.59390687  0.16825342     0.76830
C68         C  0.84845376  0.53075534  0.19115495     0.77970
C69         C  0.84235488  0.56365217  0.02760858     0.77020
Zn70       Zn  0.86289751  0.33824227  0.33602883     1.49720
Zn71       Zn  0.81665773  0.38242759  0.30977606     1.49360
Zn72       Zn  0.80869793  0.35928273  0.41444857     1.49110
Zn73       Zn  0.86518743  0.39442358  0.38884261     1.49480
O74         O  0.83762442  0.36746872  0.36362040    -1.84250
O75         O  0.86307186  0.33999341  0.26213856    -0.74880
O76         O  0.77473489  0.39053421  0.31993358    -0.74700
O77         O  0.81538783  0.31395379  0.42397200    -0.74220
O78         O  0.81973141  0.35938238  0.24995075    -0.74900
O79         O  0.84657968  0.30268474  0.36327660    -0.74500
O80         O  0.76545826  0.36695782  0.38861399    -0.75080
O81         O  0.86374212  0.39486220  0.45999227    -0.74470
O82         O  0.83566838  0.41821016  0.29362285    -0.75230
O83         O  0.81665067  0.39085832  0.47111962    -0.74620
O84         O  0.85808450  0.43298177  0.36087780    -0.75080
O85         O  0.90642371  0.38731619  0.37208903    -0.74990
O86         O  0.90602294  0.34105027  0.35202634    -0.74780
C87         C  0.84339205  0.34927022  0.23352811     0.77010
C88         C  0.75660529  0.38113497  0.35095516     0.77500
C89         C  0.82942074  0.29540811  0.39766437     0.76460
C90         C  0.84105056  0.40299304  0.48173808     0.76830
C91         C  0.85006000  0.43669367  0.31725380     0.77970
C92         C  0.91976450  0.36432608  0.36083479     0.77020
Zn93       Zn  0.84006850  0.40526296  0.94532321     1.49720
Zn94       Zn  0.86868892  0.40985723  0.84728906     1.49360
Zn95       Zn  0.88378110  0.35724867  0.93167104     1.49110
Zn96       Zn  0.82635519  0.35731418  0.87551228     1.49480
O97         O  0.85677886  0.38204497  0.89734905    -1.84250
O98         O  0.85570602  0.44466928  0.95106526    -0.74880
O99         O  0.91219083  0.39837309  0.83851334    -0.74700
O100        O  0.88406428  0.36321535  0.00511313    -0.74220
O101        O  0.86529964  0.45322599  0.87332554    -0.74900
O102        O  0.84205682  0.38657466  0.01008799    -0.74500
O103        O  0.92089108  0.36621449  0.89917375    -0.75080
O104        O  0.83480524  0.31559236  0.88037326    -0.74470
O105        O  0.84111207  0.40432371  0.78536567    -0.75230
O106        O  0.87443654  0.31417506  0.92537527    -0.74620
O107        O  0.81425780  0.36673587  0.80975286    -0.75080
O108        O  0.79274782  0.36325849  0.91745180    -0.74990
O109        O  0.79966315  0.41009372  0.92792224    -0.74780
C110        C  0.86136645  0.46228959  0.91684972     0.77010
C111        C  0.92928653  0.38134024  0.86269629     0.77500
C112        C  0.86286154  0.37286331  0.03016575     0.76460
C113        C  0.85372810  0.30122930  0.90394971     0.76830
C114        C  0.82070996  0.38570810  0.77801041     0.77970
C115        C  0.78441403  0.38757876  0.93352268     0.77020
Zn116      Zn  0.63248557  0.41149653  0.05857410     1.49720
Zn117      Zn  0.59470457  0.36107155  0.09166782     1.49360
Zn118      Zn  0.65364058  0.36594304  0.14029571     1.49110
Zn119      Zn  0.60849591  0.41778818  0.16443770     1.49480
O120        O  0.62201975  0.38955718  0.11571552    -1.84250
O121        O  0.61955476  0.39545082  0.99523202    -0.74880
O122        O  0.60060824  0.32042424  0.11697340    -0.74700
O123        O  0.68957007  0.37462873  0.10533601    -0.74220
O124        O  0.59669210  0.35545494  0.01843461    -0.74900
O125        O  0.67343155  0.40695453  0.05162225    -0.74500
O126        O  0.64753053  0.32336976  0.13229221    -0.75080
O127        O  0.63357801  0.41118187  0.22958954    -0.74470
O128        O  0.55682774  0.37548175  0.11170432    -0.75230
O129        O  0.66216058  0.37416139  0.20864137    -0.74620
O130        O  0.56318028  0.41057993  0.16687910    -0.75080
O131        O  0.61587988  0.46104136  0.13925444    -0.74990
O132        O  0.62736678  0.45399807  0.06189910    -0.74780
C133        C  0.60800756  0.37122694  0.98539272     0.77010
C134        C  0.62489054  0.30822517  0.12583167     0.77500
C135        C  0.69351004  0.39142174  0.06939310     0.76460
C136        C  0.65428287  0.39301890  0.23926979     0.76830
C137        C  0.54670339  0.39426529  0.14081433     0.77970
C138        C  0.62289610  0.47098814  0.09709472     0.77020
Zn139      Zn  0.60560121  0.57451354  0.88386025     1.49720
Zn140      Zn  0.65457751  0.62097527  0.91564224     1.49360
Zn141      Zn  0.65167588  0.60457689  0.80777702     1.49110
Zn142      Zn  0.59741601  0.63405628  0.84028351     1.49480
O143        O  0.62742612  0.60840980  0.86475390    -1.84250
O144        O  0.61417571  0.56356553  0.95219009    -0.74880
O145        O  0.69877411  0.61368518  0.89582850    -0.74700
O146        O  0.64686097  0.56526352  0.78868354    -0.74220
O147        O  0.64645624  0.59567253  0.97944879    -0.74900
O148        O  0.61788087  0.54274435  0.84196943    -0.74500
O149        O  0.69401103  0.60723259  0.81672856    -0.75080
O150        O  0.59455669  0.63339015  0.76634730    -0.74470
O151        O  0.64683574  0.66576250  0.91650837    -0.75230
O152        O  0.64073052  0.62660560  0.74839416    -0.74620
O153        O  0.61042246  0.67214356  0.86279930    -0.75080
O154        O  0.55618318  0.62486381  0.86118253    -0.74990
O155        O  0.56197795  0.57802400  0.87621917    -0.74780
C156        C  0.63032090  0.57309224  0.98590024     0.77010
C157        C  0.70996688  0.60900417  0.85391932     0.77500
C158        C  0.63373541  0.54301471  0.80423815     0.76460
C159        C  0.61482584  0.63157806  0.73508522     0.76830
C160        C  0.62959004  0.68224424  0.89152738     0.77970
C161        C  0.54542511  0.59982962  0.86930782     0.77020
Zn162      Zn  0.60977492  0.35752317  0.60161694     1.49720
Zn163      Zn  0.66246583  0.40001456  0.62541422     1.49360
Zn164      Zn  0.60791934  0.38800780  0.69730869     1.49110
Zn165      Zn  0.65769649  0.34466097  0.69069239     1.49480
O166        O  0.63508019  0.37183852  0.65213987    -1.84250
O167        O  0.61375718  0.38443861  0.54019119    -0.74880
O168        O  0.65853100  0.43496145  0.66447196    -0.74700
O169        O  0.56879760  0.39742978  0.67217378    -0.74220
O170        O  0.65176165  0.41254435  0.55748955    -0.74900
O171        O  0.56657917  0.36118041  0.62036997    -0.74500
O172        O  0.62476646  0.42312983  0.71926836    -0.75080
O173        O  0.64446108  0.34348547  0.76193814    -0.74470
O174        O  0.70529039  0.39126097  0.63723365    -0.75230
O175        O  0.60174699  0.36538258  0.75783910    -0.74620
O176        O  0.70127932  0.35558432  0.69175588    -0.75080
O177        O  0.64864165  0.30600854  0.66182343    -0.74990
O178        O  0.61846236  0.31392669  0.59854170    -0.74780
C179        C  0.63065723  0.40579567  0.52980786     0.77010
C180        C  0.64414900  0.43988297  0.70273634     0.77500
C181        C  0.55409026  0.38063024  0.64575959     0.76460
C182        C  0.62078107  0.35158109  0.78198163     0.76830
C183        C  0.71655505  0.37479569  0.66966646     0.77970
C184        C  0.63261183  0.29690527  0.62727535     0.77020
Zn185      Zn  0.66333640  0.08170936  0.12825923     1.49720
Zn186      Zn  0.65378659  0.13441428  0.19212653     1.49360
Zn187      Zn  0.61040833  0.12225095  0.09702746     1.49110
Zn188      Zn  0.60551674  0.09106675  0.19191457     1.49480
O189        O  0.63383625  0.10820115  0.15010783    -1.84250
O190        O  0.70508038  0.09449537  0.13738166    -0.74880
O191        O  0.64544447  0.17280849  0.16181991    -0.74700
O192        O  0.61733366  0.09511098  0.03720288    -0.74220
O193        O  0.69746131  0.12511042  0.19763443    -0.74900
O194        O  0.65387155  0.06675079  0.06229832    -0.74500
O195        O  0.61985263  0.16595485  0.09331923    -0.75080
O196        O  0.56894841  0.07888586  0.16086049    -0.74470
O197        O  0.63755977  0.13294394  0.26137819    -0.75230
O198        O  0.56678374  0.11799758  0.11399784    -0.74620
O199        O  0.59395456  0.11489789  0.24833299    -0.75080
O200        O  0.62402723  0.05815949  0.22108204    -0.74990
O201        O  0.66206939  0.04882982  0.17328349    -0.74780
C202        C  0.71457790  0.10882451  0.17338138     0.77010
C203        C  0.63227568  0.18265645  0.12420230     0.77500
C204        C  0.63453449  0.07338870  0.03095338     0.76460
C205        C  0.55413458  0.09754835  0.13754964     0.76830
C206        C  0.61241093  0.12583692  0.27693987     0.77970
C207        C  0.64630068  0.04351531  0.21001509     0.77020
Zn208      Zn  0.65756701  0.84464866  0.32551331     1.49720
Zn209      Zn  0.61267701  0.85678550  0.41983552     1.49360
Zn210      Zn  0.66396473  0.89919726  0.38889043     1.49110
Zn211      Zn  0.60620938  0.88948736  0.32263926     1.49480
O212        O  0.63520560  0.87185455  0.36468472    -1.84250
O213        O  0.64867298  0.80623559  0.35590978    -0.74880
O214        O  0.61899966  0.88337543  0.47988409    -0.74700
O215        O  0.70648637  0.89053403  0.37448050    -0.74220
O216        O  0.62115924  0.81311896  0.42235863    -0.74900
O217        O  0.70147086  0.85448501  0.32224520    -0.74500
O218        O  0.65538563  0.91212368  0.45641317    -0.75080
O219        O  0.61672153  0.92950231  0.31144718    -0.74470
O220        O  0.56848924  0.85972280  0.40950834    -0.75230
O221        O  0.65904509  0.93410091  0.35020341    -0.74620
O222        O  0.56540736  0.88801763  0.34457921    -0.75080
O223        O  0.60585058  0.87327700  0.25668436    -0.74990
O224        O  0.64373920  0.84358774  0.25431442    -0.74780
C225        C  0.63358268  0.79645511  0.39141911     0.77010
C226        C  0.63570212  0.90522624  0.48688851     0.77500
C227        C  0.71724498  0.87364272  0.34274248     0.76460
C228        C  0.63974944  0.94324057  0.32121651     0.76830
C229        C  0.55333787  0.87420735  0.37898570     0.77970
C230        C  0.62261316  0.85661294  0.23333265     0.77020
Zn231      Zn  0.86714944  0.11673088  0.35104431     1.49720
Zn232      Zn  0.82570821  0.11573649  0.43682194     1.49360
Zn233      Zn  0.82907607  0.05901912  0.37967748     1.49110
Zn234      Zn  0.87935704  0.07708318  0.44701175     1.49480
O235        O  0.85248348  0.09190782  0.40214744    -1.84250
O236        O  0.85972026  0.16022026  0.36538026    -0.74880
O237        O  0.78799497  0.10644580  0.40902786    -0.74700
O238        O  0.81500743  0.06874379  0.31196663    -0.74220
O239        O  0.83109935  0.15771176  0.42986994    -0.74900
O240        O  0.84073320  0.10833611  0.29136946    -0.74500
O241        O  0.79389787  0.05996180  0.42096052    -0.75080
O242        O  0.87185783  0.03396428  0.45736876    -0.74470
O243        O  0.82717851  0.10878796  0.50846367    -0.75230
O244        O  0.84356315  0.01800180  0.39824488    -0.74620
O245        O  0.87365377  0.09605978  0.51233667    -0.75080
O246        O  0.91870025  0.08617159  0.42077508    -0.74990
O247        O  0.91209906  0.11076708  0.35128479    -0.74780
C248        C  0.84478117  0.17247290  0.39856441     0.77010
C249        C  0.77972006  0.08308075  0.42846536     0.77500
C250        C  0.81980730  0.09044555  0.28368459     0.76460
C251        C  0.85768679  0.01333176  0.43755405     0.76830
C252        C  0.85042647  0.10510698  0.53272789     0.77970
C253        C  0.92898927  0.09946559  0.38366376     0.77020
Zn254      Zn  0.59130243  0.07132268  0.57357419     1.49720
Zn255      Zn  0.63819436  0.11919199  0.57340598     1.49360
Zn256      Zn  0.60479692  0.11400230  0.66855318     1.49110
Zn257      Zn  0.64692993  0.06148591  0.63806121     1.49480
O258        O  0.61961043  0.09108329  0.61421916    -1.84250
O259        O  0.59015355  0.08710425  0.50310864    -0.74880
O260        O  0.64032786  0.15877984  0.59739873    -0.74700
O261        O  0.56135962  0.10560950  0.67240792    -0.74220
O262        O  0.62098787  0.12336287  0.50859804    -0.74900
O263        O  0.55302175  0.07981281  0.60501489    -0.74500
O264        O  0.60881010  0.15814746  0.65768287    -0.75080
O265        O  0.65866429  0.06946586  0.70696118    -0.74470
O266        O  0.67686778  0.10633839  0.56121959    -0.75230
O267        O  0.63040418  0.10629871  0.72922629    -0.74620
O268        O  0.68389405  0.06487878  0.60126284    -0.75080
O269        O  0.63470146  0.01992424  0.62406764    -0.74990
O270        O  0.59961114  0.02738697  0.56993001    -0.74780
C271        C  0.60321791  0.10873329  0.48381096     0.77010
C272        C  0.62590436  0.17201088  0.62933361     0.77500
C273        C  0.54404560  0.09309522  0.64273506     0.76460
C274        C  0.65184349  0.08911450  0.73730891     0.76830
C275        C  0.69230033  0.08443373  0.57182673     0.77970
C276        C  0.61719023  0.01025963  0.59210392     0.77020
Zn277      Zn  0.82787279  0.85627047  0.14081660     1.49720
Zn278      Zn  0.88698977  0.85233167  0.09597715     1.49360
Zn279      Zn  0.84634022  0.90082888  0.05816393     1.49110
Zn280      Zn  0.86853089  0.90917484  0.16417227     1.49480
O281        O  0.85815319  0.88020426  0.11576061    -1.84250
O282        O  0.83178843  0.81440150  0.12516963    -0.74880
O283        O  0.88988673  0.84794614  0.02340706    -0.74700
O284        O  0.80399406  0.90253658  0.05798376    -0.74220
O285        O  0.87921709  0.81096523  0.11655316    -0.74900
O286        O  0.79142967  0.86953470  0.11345447    -0.74500
O287        O  0.85634792  0.87926299  0.99788293    -0.75080
O288        O  0.86238350  0.95107180  0.13465160    -0.74470
O289        O  0.92322035  0.86658603  0.12248722    -0.75230
O290        O  0.85933638  0.94215474  0.05551731    -0.74620
O291        O  0.91333306  0.90288585  0.17395828    -0.75080
O292        O  0.84050617  0.90367425  0.22545235    -0.74990
O293        O  0.82183708  0.86012955  0.21079442    -0.74780
C294        C  0.85443309  0.79895426  0.11968080     0.77010
C295        C  0.87406418  0.85864860  0.98996014     0.77500
C296        C  0.78500424  0.88783493  0.08067689     0.76460
C297        C  0.86106791  0.95997530  0.09040516     0.76830
C298        C  0.93136374  0.88601621  0.15202274     0.77970
C299        C  0.82403367  0.88220726  0.23766212     0.77020
Zn300      Zn  0.60722942  0.86608062  0.84888601     1.49720
Zn301      Zn  0.59234576  0.90954364  0.94225180     1.49360
Zn302      Zn  0.62988287  0.85863457  0.94884555     1.49110
Zn303      Zn  0.65101100  0.91507198  0.88813690     1.49480
O304        O  0.61987424  0.88852493  0.90349687    -1.84250
O305        O  0.56383233  0.87443669  0.84344541    -0.74880
O306        O  0.59539702  0.89661526  0.01398986    -0.74700
O307        O  0.64191905  0.82119839  0.92255109    -0.74220
O308        O  0.55440710  0.89907538  0.91203157    -0.74900
O309        O  0.61130151  0.82209322  0.86120917    -0.74500
O310        O  0.60074385  0.85000995  0.00015235    -0.75080
O311        O  0.68117401  0.90917324  0.93923215    -0.74470
O312        O  0.60008060  0.95326540  0.94176955    -0.75230
O313        O  0.66196205  0.87343799  0.98352538    -0.74620
O314        O  0.63995369  0.95781563  0.89688287    -0.75080
O315        O  0.66740593  0.90505520  0.82165218    -0.74990
O316        O  0.63497751  0.87410466  0.79095320    -0.74780
C317        C  0.54607276  0.88606671  0.87361332     0.77010
C318        C  0.59777870  0.87061520  0.02975117     0.77500
C319        C  0.62805763  0.80802100  0.88991401     0.76460
C320        C  0.68098429  0.89273815  0.97662735     0.76830
C321        C  0.62001314  0.96909907  0.92310378     0.77970
C322        C  0.65889573  0.88833740  0.78764404     0.77020
Zn323      Zn  0.85871173  0.11790489  0.92627736     1.49720
Zn324      Zn  0.81504730  0.13158749  0.83443335     1.49360
Zn325      Zn  0.86233729  0.08233921  0.83445665     1.49110
Zn326      Zn  0.80616744  0.07683668  0.90121238     1.49480
O327        O  0.83515304  0.10303422  0.87406171    -1.84250
O328        O  0.84683571  0.15975069  0.93641065    -0.74880
O329        O  0.82963372  0.13187551  0.76368714    -0.74700
O330        O  0.90396156  0.09009782  0.84662347    -0.74220
O331        O  0.82304327  0.16963805  0.86691078    -0.74900
O332        O  0.90150127  0.12026259  0.90832639    -0.74500
O333        O  0.85709104  0.09258674  0.76616995    -0.75080
O334        O  0.80952892  0.04058039  0.86475712    -0.74470
O335        O  0.77146486  0.12209992  0.83018385    -0.75230
O336        O  0.85521010  0.04089851  0.83760335    -0.74620
O337        O  0.76417205  0.08809422  0.88677035    -0.75080
O338        O  0.81626881  0.06380934  0.96962569    -0.74990
O339        O  0.85719666  0.08838708  0.98285956    -0.74780
C340        C  0.83502334  0.17769070  0.90648744     0.77010
C341        C  0.84528189  0.11293879  0.74224559     0.77500
C342        C  0.91620455  0.10700813  0.87619187     0.76460
C343        C  0.83081834  0.02869183  0.84355879     0.76830
C344        C  0.75468355  0.10424178  0.85227275     0.77970
C345        C  0.83950842  0.06793977  0.99392708     0.77020
Zn346      Zn  0.81688931  0.86248359  0.72772963     1.49720
Zn347      Zn  0.86648264  0.89444017  0.66545551     1.49360
Zn348      Zn  0.86913327  0.83176297  0.68520521     1.49110
Zn349      Zn  0.81524342  0.85808853  0.61572292     1.49480
O350        O  0.84172010  0.86188349  0.67101427    -1.84250
O351        O  0.81654249  0.90232509  0.75124632    -0.74880
O352        O  0.90909652  0.88611821  0.67183826    -0.74700
O353        O  0.87500766  0.82717640  0.75770060    -0.74220
O354        O  0.85489644  0.92254365  0.71455613    -0.74900
O355        O  0.83212676  0.84131255  0.78506441    -0.74500
O356        O  0.90962764  0.83857127  0.66059170    -0.75080
O357        O  0.81905279  0.81361516  0.60006874    -0.74470
O358        O  0.86007202  0.91331928  0.60223595    -0.75230
O359        O  0.85206448  0.79786418  0.65506486    -0.74620
O360        O  0.82559656  0.89024592  0.56155188    -0.75080
O361        O  0.77243530  0.86692009  0.63947703    -0.74990
O362        O  0.77539621  0.85285497  0.71660649    -0.74780
C363        C  0.83401301  0.92320428  0.74467618     0.77010
C364        C  0.92284543  0.86261028  0.66468759     0.77500
C365        C  0.85772106  0.83206523  0.79269260     0.76460
C366        C  0.83334100  0.79320120  0.62202998     0.76830
C367        C  0.84348259  0.91159695  0.56559845     0.77970
C368        C  0.76042621  0.86165331  0.68068248     0.77020
Zn369      Zn  0.30942165  0.11805585  0.60786202     1.49720
Zn370      Zn  0.36449017  0.07955547  0.63657777     1.49360
Zn371      Zn  0.36461869  0.13810753  0.68020873     1.49110
Zn372      Zn  0.31710093  0.09492891  0.71613675     1.49480
O373        O  0.33781782  0.10841422  0.65930586    -1.84250
O374        O  0.31337871  0.08722904  0.55112759    -0.74880
O375        O  0.40467207  0.09165293  0.62060880    -0.74700
O376        O  0.35371427  0.17257025  0.64287217    -0.74220
O377        O  0.34892034  0.05939614  0.58102798    -0.74900
O378        O  0.31902489  0.16098210  0.58903824    -0.74500
O379        O  0.40701212  0.12919939  0.66890473    -0.75080
O380        O  0.32812114  0.11647414  0.77584866    -0.74470
O381        O  0.37054425  0.05117446  0.68829135    -0.75230
O382        O  0.36457788  0.14459278  0.75193716    -0.74620
O383        O  0.33110855  0.05602776  0.73437427    -0.75080
O384        O  0.27379353  0.09460756  0.70809153    -0.74990
O385        O  0.26656573  0.11477065  0.63528992    -0.74780
C386        C  0.32949535  0.06437690  0.54948088     0.77010
C387        C  0.41959471  0.11003179  0.64367208     0.77500
C388        C  0.33671732  0.17928359  0.60801249     0.76460
C389        C  0.34938420  0.13307012  0.78534419     0.76830
C390        C  0.35497797  0.04361845  0.72408304     0.77970
C391        C  0.25668872  0.10378780  0.67503033     0.77020
Zn392      Zn  0.37061687  0.89730564  0.90476593     1.49720
Zn393      Zn  0.32295369  0.89239818  0.82186574     1.49360
Zn394      Zn  0.36638690  0.84312832  0.84480504     1.49110
Zn395      Zn  0.31256226  0.86133300  0.92321866     1.49480
O396        O  0.34199318  0.87275472  0.87446861    -1.84250
O397        O  0.37757938  0.93165404  0.86401822    -0.74880
O398        O  0.33047963  0.87467048  0.75784354    -0.74700
O399        O  0.40934288  0.85147374  0.84984018    -0.74220
O400        O  0.33950842  0.93079263  0.81399851    -0.74900
O401        O  0.40973124  0.88042530  0.91310117    -0.74500
O402        O  0.36103804  0.83844355  0.77252580    -0.75080
O403        O  0.32173515  0.81698078  0.93470948    -0.74470
O404        O  0.28030247  0.89440916  0.82842338    -0.75230
O405        O  0.35691740  0.80722885  0.88029460    -0.74620
O406        O  0.27019237  0.86675694  0.89280632    -0.75080
O407        O  0.31728844  0.88886779  0.98611296    -0.74990
O408        O  0.35826029  0.91188772  0.96751604    -0.74780
C409        C  0.36251525  0.94240633  0.82991035     0.77010
C410        C  0.34642126  0.85407298  0.74313152     0.77500
C411        C  0.42315301  0.86626509  0.88083215     0.76460
C412        C  0.33973985  0.79935239  0.91423776     0.76830
C413        C  0.26190488  0.88189026  0.85578615     0.77970
C414        C  0.33720508  0.90759325  0.99622891     0.77020
Zn415      Zn  0.10952681  0.86465986  0.67664423     1.49720
Zn416      Zn  0.09078011  0.90874301  0.58735772     1.49360
Zn417      Zn  0.15211380  0.91487654  0.63141007     1.49110
Zn418      Zn  0.12908388  0.85940621  0.57309730     1.49480
O419        O  0.12050339  0.88799387  0.62120523    -1.84250
O420        O  0.06506351  0.86977275  0.68342853    -0.74880
O421        O  0.09655319  0.95200509  0.58666226    -0.74700
O422        O  0.16843185  0.90683642  0.69925317    -0.74220
O423        O  0.05389552  0.89606316  0.61699934    -0.74900
O424        O  0.13793208  0.87458014  0.73324324    -0.74500
O425        O  0.14146782  0.95754079  0.61460415    -0.75080
O426        O  0.15854635  0.87609133  0.53317528    -0.74470
O427        O  0.09226770  0.89831597  0.51597317    -0.75230
O428        O  0.18205188  0.90720167  0.57992349    -0.74620
O429        O  0.09761119  0.85135435  0.52551944    -0.75080
O430        O  0.14319290  0.82158096  0.59695728    -0.74990
O431        O  0.11554172  0.82109483  0.66269658    -0.74780
C432        C  0.04636433  0.88095782  0.65396443     0.77010
C433        C  0.11896964  0.96772467  0.59300666     0.77500
C434        C  0.16113257  0.89013814  0.73475634     0.76460
C435        C  0.17924597  0.89338246  0.54029542     0.76830
C436        C  0.09442325  0.87314676  0.49770686     0.77970
C437        C  0.13062422  0.80779332  0.63082862     0.77020
Zn438      Zn  0.37651784  0.90243956  0.45141701     1.49720
Zn439      Zn  0.36784843  0.86030077  0.35930444     1.49360
Zn440      Zn  0.32411200  0.86033567  0.44134050     1.49110
Zn441      Zn  0.32912269  0.91700784  0.37252427     1.49480
O442        O  0.35003836  0.88524895  0.40634901    -1.84250
O443        O  0.41679733  0.89647253  0.42441315    -0.74880
O444        O  0.36474101  0.81762892  0.37930713    -0.74700
O445        O  0.33392035  0.85804236  0.51098057    -0.74220
O446        O  0.41129589  0.87000303  0.35717972    -0.74900
O447        O  0.37416960  0.88373523  0.51887755    -0.74500
O448        O  0.32378704  0.81931816  0.42120336    -0.75080
O449        O  0.28836319  0.91741525  0.39536269    -0.74470
O450        O  0.34205192  0.86360890  0.29837126    -0.75230
O451        O  0.28519134  0.87582159  0.43667738    -0.74620
O452        O  0.32287806  0.90808380  0.30149220    -0.75080
O453        O  0.34122249  0.95793719  0.39237634    -0.74990
O454        O  0.36420998  0.94460868  0.46014031    -0.74780
C455        C  0.42747213  0.88317832  0.38786597     0.77010
C456        C  0.34367072  0.80485254  0.40067904     0.77500
C457        C  0.35465314  0.86723929  0.53694001     0.76460
C458        C  0.27399834  0.89894974  0.41969890     0.76830
C459        C  0.32477485  0.88316837  0.28170005     0.77970
C460        C  0.35068743  0.96372406  0.43479178     0.77020
Zn461      Zn  0.10574864  0.09529424  0.32005665     1.49720
Zn462      Zn  0.11560832  0.12493983  0.41722453     1.49360
Zn463      Zn  0.16366985  0.07987677  0.37852042     1.49110
Zn464      Zn  0.15911970  0.13563493  0.32112956     1.49480
O465        O  0.13629551  0.10982586  0.36124913    -1.84250
O466        O  0.06650284  0.09267834  0.34741683    -0.74880
O467        O  0.12339922  0.09692336  0.47638474    -0.74700
O468        O  0.16089014  0.05085453  0.32666895    -0.74220
O469        O  0.07079692  0.12310071  0.40872034    -0.74900
O470        O  0.11740246  0.05797093  0.29405217    -0.74500
O471        O  0.15144783  0.06288239  0.44222994    -0.75080
O472        O  0.20297583  0.12561193  0.32075587    -0.74470
O473        O  0.12555668  0.16861153  0.41746943    -0.75230
O474        O  0.20661763  0.08963710  0.37443959    -0.74620
O475        O  0.15079536  0.17472954  0.34799657    -0.75080
O476        O  0.14511614  0.13402413  0.25075941    -0.74990
O477        O  0.09991979  0.11894310  0.26094511    -0.74780
C478        C  0.05513961  0.10789661  0.38037200     0.77010
C479        C  0.13558964  0.07173950  0.47716394     0.77500
C480        C  0.14158162  0.04482398  0.29546325     0.76460
C481        C  0.21838704  0.10688779  0.34382652     0.76830
C482        C  0.13746618  0.18489503  0.38486327     0.77970
C483        C  0.12005361  0.12810994  0.23358098     0.77020
Zn484      Zn  0.11206108  0.85523210  0.11029613     1.49720
Zn485      Zn  0.11167455  0.89465534  0.20009822     1.49360
Zn486      Zn  0.15390672  0.84180003  0.20506028     1.49110
Zn487      Zn  0.16798512  0.89282035  0.13249236     1.49480
O488        O  0.13640761  0.87019735  0.16194536    -1.84250
O489        O  0.06900203  0.85972812  0.12682201    -0.74880
O490        O  0.11350634  0.88529677  0.27019193    -0.74700
O491        O  0.14352153  0.80323267  0.17698263    -0.74220
O492        O  0.06994549  0.89313511  0.18399420    -0.74900
O493        O  0.12004784  0.81071646  0.10676270    -0.74500
O494        O  0.13822014  0.84395057  0.27500004    -0.75080
O495        O  0.20859909  0.87705287  0.14553502    -0.74470
O496        O  0.12442758  0.93442490  0.19364168    -0.75230
O497        O  0.19821760  0.84839309  0.20849808    -0.74620
O498        O  0.16982484  0.93011495  0.16635723    -0.75080
O499        O  0.15813131  0.90672017  0.06415857    -0.74990
O500        O  0.11626555  0.88378046  0.05103303    -0.74780
C501        C  0.05592563  0.87723871  0.15506374     0.77010
C502        C  0.12354737  0.86417865  0.29483728     0.77500
C503        C  0.13115782  0.79349825  0.13896936     0.76460
C504        C  0.21678266  0.86228135  0.18261733     0.76830
C505        C  0.14952017  0.94465933  0.18550475     0.77970
C506        C  0.13462026  0.90380057  0.04011425     0.77020
Zn507      Zn  0.08846883  0.07158380  0.94088875     1.49720
Zn508      Zn  0.10206124  0.11653664  0.84426183     1.49360
Zn509      Zn  0.13219921  0.12161662  0.93982441     1.49110
Zn510      Zn  0.14344076  0.06269271  0.87731975     1.49480
O511        O  0.11579567  0.09249328  0.89908259    -1.84250
O512        O  0.05026581  0.08346830  0.91313857    -0.74880
O513        O  0.10807834  0.16134746  0.85234755    -0.74700
O514        O  0.11777615  0.12318313  0.00547376    -0.74220
O515        O  0.05768698  0.11028365  0.84527521    -0.74900
O516        O  0.09035648  0.08406915  0.01267533    -0.74500
O517        O  0.13367658  0.16204123  0.91979329    -0.75080
O518        O  0.17977322  0.06905233  0.91268850    -0.74470
O519        O  0.12830779  0.10760566  0.78406589    -0.75230
O520        O  0.17055032  0.11037302  0.95020020    -0.74620
O521        O  0.15567598  0.07001795  0.80813995    -0.75080
O522        O  0.13402529  0.02045419  0.89728931    -0.74990
O523        O  0.09579960  0.02725566  0.94446341    -0.74780
C524        C  0.04085652  0.09891117  0.87761564     0.77010
C525        C  0.12206992  0.17525720  0.88466772     0.77500
C526        C  0.10351818  0.10558117  0.03127005     0.76460
C527        C  0.18705297  0.08930654  0.94084860     0.76830
C528        C  0.14982427  0.09018723  0.77755304     0.77970
C529        C  0.11538113  0.01037022  0.92738668     0.77020
Zn530      Zn  0.36673554  0.06551871  0.16289684     1.49720
Zn531      Zn  0.38092084  0.12366984  0.09199755     1.49360
Zn532      Zn  0.34745226  0.07150956  0.05442532     1.49110
Zn533      Zn  0.32167065  0.11625733  0.13305525     1.49480
O534        O  0.35447572  0.09355214  0.11254094    -1.84250
O535        O  0.41202376  0.07286917  0.16657154    -0.74880
O536        O  0.38005007  0.12968074  0.01925438    -0.74700
O537        O  0.34943469  0.02852304  0.06117172    -0.74220
O538        O  0.41877605  0.11047026  0.11505213    -0.74900
O539        O  0.35748866  0.02220358  0.14009651    -0.74500
O540        O  0.36503569  0.08693377  0.99296006    -0.75080
O541        O  0.28726930  0.10386703  0.09925307    -0.74470
O542        O  0.37208255  0.16418347  0.11555730    -0.75230
O543        O  0.30714807  0.07730551  0.04088615    -0.74620
O544        O  0.32454524  0.15914931  0.12044926    -0.75080
O545        O  0.31308730  0.10987706  0.20124297    -0.74990
O546        O  0.34174354  0.07391384  0.22705424    -0.74780
C547        C  0.42867156  0.09104750  0.14388221     0.77010
C548        C  0.37299859  0.11292496  0.98488730     0.77500
C549        C  0.35112465  0.01193443  0.09813556     0.76460
C550        C  0.28567373  0.08979600  0.06025010     0.76830
C551        C  0.34676299  0.17533934  0.11773929     0.77970
C552        C  0.32098498  0.09227614  0.23430409     0.77020
Zn553      Zn  0.15021168  0.41464518  0.37733389     1.49720
Zn554      Zn  0.10435825  0.36718175  0.33722017     1.49360
Zn555      Zn  0.12817930  0.35880654  0.43601570     1.49110
Zn556      Zn  0.09091932  0.41023251  0.43163604     1.49480
O557        O  0.11800372  0.38925419  0.39192048    -1.84250
O558        O  0.16480804  0.40620939  0.30940591    -0.74880
O559        O  0.10798796  0.32295040  0.34896871    -0.74700
O560        O  0.15979941  0.37258735  0.47335300    -0.74220
O561        O  0.13218726  0.37545079  0.27845675    -0.74900
O562        O  0.18142728  0.40521674  0.42552574    -0.74500
O563        O  0.14105311  0.32233092  0.40705002    -0.75080
O564        O  0.09295271  0.39521971  0.50217658    -0.74470
O565        O  0.06035951  0.37465862  0.33498967    -0.75230
O566        O  0.09849104  0.34910877  0.48566415    -0.74620
O567        O  0.05200452  0.40013685  0.40307380    -0.75080
O568        O  0.10171419  0.45342810  0.43630265    -0.74990
O569        O  0.14196766  0.45763847  0.39167773    -0.74780
C570        C  0.15602298  0.38993275  0.27502743     0.77010
C571        C  0.12604745  0.30921199  0.37581932     0.77500
C572        C  0.18028222  0.38997800  0.46429603     0.76460
C573        C  0.09515908  0.36892196  0.51666129     0.76830
C574        C  0.04302926  0.38536331  0.36686783     0.77970
C575        C  0.12304396  0.46853949  0.42028236     0.77020
Zn576      Zn  0.36749352  0.41162739  0.65721203     1.49720
Zn577      Zn  0.38447773  0.35681409  0.58298070     1.49360
Zn578      Zn  0.32586745  0.35857302  0.63700775     1.49110
Zn579      Zn  0.34145219  0.40464234  0.55231455     1.49480
O580        O  0.35545354  0.38339102  0.60810884    -1.84250
O581        O  0.41191573  0.40304061  0.66752773    -0.74880
O582        O  0.37488636  0.31467270  0.59406223    -0.74700
O583        O  0.32117464  0.36281339  0.70783112    -0.74220
O584        O  0.42100262  0.36715790  0.61481519    -0.74900
O585        O  0.34001959  0.40658625  0.71880127    -0.74500
O586        O  0.32991261  0.31661906  0.62161012    -0.75080
O587        O  0.29984788  0.40096905  0.55246524    -0.74470
O588        O  0.38867310  0.35699970  0.50994696    -0.75230
O589        O  0.28794039  0.36987186  0.61133890    -0.74620
O590        O  0.35340514  0.38745010  0.48890989    -0.75080
O591        O  0.34786810  0.44737097  0.55422082    -0.74990
O592        O  0.36143525  0.45429780  0.63072430    -0.74780
C593        C  0.42937735  0.38496665  0.64697538     0.77010
C594        C  0.35130457  0.30208385  0.60571850     0.77500
C595        C  0.32339105  0.38569323  0.73283270     0.76460
C596        C  0.28123032  0.38666205  0.57650221     0.76830
C597        C  0.37242769  0.36859539  0.47789102     0.77970
C598        C  0.35393295  0.46429766  0.58890223     0.77020
Zn599      Zn  0.31536794  0.61915145  0.41852500     1.49720
Zn600      Zn  0.36627988  0.63587257  0.33267480     1.49360
Zn601      Zn  0.37189544  0.58202085  0.39159572     1.49110
Zn602      Zn  0.32097089  0.58679974  0.32188628     1.49480
O603        O  0.34273667  0.60800682  0.36748651    -1.84250
O604        O  0.32585043  0.66285543  0.42686880    -0.74880
O605        O  0.40971788  0.62599084  0.33240526    -0.74700
O606        O  0.36121952  0.56621423  0.45433302    -0.74220
O607        O  0.35802843  0.67245910  0.36685185    -0.74900
O608        O  0.32244451  0.59059245  0.47988729    -0.74500
O609        O  0.41208344  0.59613185  0.39522626    -0.75080
O610        O  0.32735103  0.54585401  0.33466789    -0.74470
O611        O  0.35683548  0.63784833  0.26106343    -0.75230
O612        O  0.37481710  0.54954913  0.34692170    -0.74620
O613        O  0.33334651  0.59593582  0.25448832    -0.75080
O614        O  0.27888385  0.59361578  0.32333332    -0.74990
O615        O  0.27157398  0.61613829  0.39307633    -0.74780
C616        C  0.34241440  0.68039158  0.40277249     0.77010
C617        C  0.42437237  0.60957832  0.36068123     0.77500
C618        C  0.34185139  0.57058896  0.48615145     0.76460
C619        C  0.35294630  0.53601775  0.33135080     0.76830
C620        C  0.34572099  0.61787741  0.23541231     0.77970
C621        C  0.26181227  0.60524561  0.35349515     0.77020
Zn622      Zn  0.36344022  0.40579376  0.13202131     1.49720
Zn623      Zn  0.37094351  0.34428364  0.17144473     1.49360
Zn624      Zn  0.31862755  0.37857674  0.21062225     1.49110
Zn625      Zn  0.31316090  0.36185717  0.10058704     1.49480
O626        O  0.34118002  0.37230971  0.15195494    -1.84250
O627        O  0.40637790  0.40168281  0.13767045    -0.74880
O628        O  0.37399092  0.34030532  0.24484412    -0.74700
O629        O  0.32614682  0.41800653  0.23139690    -0.74220
O630        O  0.41240992  0.35488996  0.15366187    -0.74900
O631        O  0.35522709  0.43735781  0.17528764    -0.74500
O632        O  0.33069577  0.35561647  0.26862039    -0.75080
O633        O  0.26958903  0.36773344  0.12457487    -0.74470
O634        O  0.35880886  0.30748479  0.14107635    -0.75230
O635        O  0.27598489  0.37579927  0.20317536    -0.74620
O636        O  0.32085346  0.31753348  0.09186498    -0.75080
O637        O  0.32045627  0.38881260  0.03796998    -0.74990
O638        O  0.35467123  0.41857087  0.06530458    -0.74780
C639        C  0.42278123  0.38007170  0.14574092     0.77010
C640        C  0.35563151  0.34528171  0.27829490     0.77500
C641        C  0.34116796  0.43880732  0.21463605     0.76460
C642        C  0.25926882  0.37255024  0.16711376     0.76830
C643        C  0.33913589  0.29966374  0.11131038     0.77970
C644        C  0.33774183  0.41053958  0.03170597     0.77020
Zn645      Zn  0.09474223  0.56364113  0.08469264     1.49720
Zn646      Zn  0.10718357  0.60781698  0.17857245     1.49360
Zn647      Zn  0.15439416  0.56179387  0.13759276     1.49110
Zn648      Zn  0.13463988  0.61813565  0.08060638     1.49480
O649        O  0.12145802  0.58678986  0.12215409    -1.84250
O650        O  0.05571510  0.57376488  0.11255919    -0.74880
O651        O  0.13487524  0.59972185  0.23723551    -0.74700
O652        O  0.14816339  0.51820462  0.12300880    -0.74220
O653        O  0.06297998  0.59961730  0.18028812    -0.74900
O654        O  0.10577034  0.52007356  0.08432903    -0.74500
O655        O  0.17032766  0.57301024  0.20380338    -0.75080
O656        O  0.17658674  0.62003090  0.08830566    -0.74470
O657        O  0.11053304  0.65253909  0.17052323    -0.75230
O658        O  0.18344850  0.57265201  0.08800536    -0.74620
O659        O  0.11984536  0.65780828  0.09234751    -0.75080
O660        O  0.12737001  0.61072561  0.01169417    -0.74990
O661        O  0.09510834  0.57512079  0.01269254    -0.74780
C662        C  0.04599251  0.58827938  0.14857702     0.77010
C663        C  0.16052917  0.58854395  0.23848965     0.77500
C664        C  0.12819529  0.50575304  0.09844068     0.76460
C665        C  0.18946679  0.59789055  0.07209177     0.76830
C666        C  0.11435412  0.66873668  0.13323494     0.77970
C667        C  0.11051493  0.59362745  0.98959693     0.77020
Zn668      Zn  0.35828658  0.56507287  0.84970031     1.49720
Zn669      Zn  0.37408349  0.61692395  0.93034694     1.49360
Zn670      Zn  0.31846421  0.62205388  0.86791803     1.49110
Zn671      Zn  0.32409203  0.57185441  0.94616644     1.49480
O672        O  0.34467726  0.59364632  0.89753393    -1.84250
O673        O  0.40294276  0.57327889  0.84310543    -0.74880
O674        O  0.36676735  0.66058055  0.92637032    -0.74700
O675        O  0.31173003  0.61461627  0.79872656    -0.74220
O676        O  0.41207854  0.60616036  0.90108479    -0.74900
O677        O  0.33216254  0.57137496  0.78638914    -0.74500
O678        O  0.32776292  0.66359006  0.87984793    -0.75080
O679        O  0.28245745  0.57741101  0.93843681    -0.74470
O680        O  0.37423080  0.61099696  0.00305896    -0.75230
O681        O  0.27954630  0.61892340  0.89709335    -0.74620
O682        O  0.33342888  0.58610543  0.01214931    -0.75080
O683        O  0.33001471  0.52933721  0.94542317    -0.74990
O684        O  0.35308161  0.52168657  0.87601108    -0.74780
C685        C  0.42055985  0.58927033  0.86744517     0.77010
C686        C  0.34648403  0.67551396  0.90686629     0.77500
C687        C  0.31522624  0.59227139  0.77267188     0.76460
C688        C  0.26816845  0.59908626  0.92280818     0.76830
C689        C  0.35422546  0.60065474  0.02999427     0.77970
C690        C  0.34109419  0.51201426  0.91507766     0.77020
Zn691      Zn  0.14996989  0.58409805  0.69290695     1.49720
Zn692      Zn  0.09953265  0.58192039  0.62411407     1.49360
Zn693      Zn  0.10557838  0.63454701  0.68610357     1.49110
Zn694      Zn  0.15765759  0.62094494  0.60240957     1.49480
O695        O  0.12869233  0.60822375  0.64973121    -1.84250
O696        O  0.14265875  0.54679072  0.66489115    -0.74880
O697        O  0.05934399  0.59763974  0.61740264    -0.74700
O698        O  0.11082465  0.62855179  0.75810421    -0.74220
O699        O  0.09584179  0.54986913  0.67285303    -0.74900
O700        O  0.13411432  0.58629911  0.76071832    -0.74500
O701        O  0.06161860  0.63027167  0.67575608    -0.75080
O702        O  0.14943408  0.66590007  0.59894435    -0.74470
O703        O  0.11436466  0.56567945  0.56342887    -0.75230
O704        O  0.11896498  0.67257679  0.66217083    -0.74620
O705        O  0.15261999  0.59281738  0.54124242    -0.75080
O706        O  0.20082718  0.61460760  0.62826373    -0.74990
O707        O  0.19263097  0.58861474  0.69467736    -0.74780
C708        C  0.11971665  0.53848102  0.68557298     0.77010
C709        C  0.04684284  0.61483704  0.64661893     0.77500
C710        C  0.12028150  0.60659794  0.78177744     0.76460
C711        C  0.13481537  0.68249341  0.62774316     0.76830
C712        C  0.13539360  0.57105446  0.53478195     0.77970
C713        C  0.21033049  0.60073070  0.66567289     0.77020
Zn714      Zn  0.10929972  0.34490014  0.82531421     1.49720
Zn715      Zn  0.10934005  0.40287363  0.88163754     1.49360
Zn716      Zn  0.16397484  0.36108485  0.90148227     1.49110
Zn717      Zn  0.15540422  0.39038312  0.79714437     1.49480
O718        O  0.13507467  0.37422532  0.85247898    -1.84250
O719        O  0.06679345  0.35206968  0.83859863    -0.74880
O720        O  0.11706491  0.40999895  0.95059960    -0.74700
O721        O  0.15640914  0.31577823  0.90808116    -0.74220
O722        O  0.06734558  0.39570871  0.87129225    -0.74900
O723        O  0.12188198  0.30743896  0.85212716    -0.74500
O724        O  0.15872035  0.38712108  0.96576365    -0.75080
O725        O  0.19828530  0.38540912  0.80017782    -0.74470
O726        O  0.11560922  0.44101094  0.85250413    -0.75230
O727        O  0.20673223  0.36794854  0.87442108    -0.74620
O728        O  0.14965664  0.43196980  0.79758051    -0.75080
O729        O  0.13915075  0.37860482  0.73237327    -0.74990
O730        O  0.10892604  0.34304205  0.75210041    -0.74780
C731        C  0.05354643  0.37464451  0.85320927     0.77010
C732        C  0.13862198  0.40521482  0.97824884     0.77500
C733        C  0.13989484  0.29846865  0.88391487     0.76460
C734        C  0.21597438  0.37770829  0.83333604     0.76830
C735        C  0.13294845  0.44930203  0.81963080     0.77970
C736        C  0.12050287  0.35964036  0.72057197     0.77020
C737        C  0.12252533  0.51964088  0.72836306    -0.06250
C738        C  0.15089242  0.51086788  0.74120690    -0.17380
C739        C  0.15557390  0.49113610  0.77841082     0.10950
C740        C  0.13136226  0.47882515  0.80172053    -0.06180
C741        C  0.10352270  0.49043233  0.79418720    -0.17410
C742        C  0.09886396  0.51117160  0.75804080     0.10980
S743        S  0.19265675  0.48061181  0.79166426    -0.32380
S744        S  0.06241680  0.52497125  0.75127466    -0.32380
H745        H  0.07152293  0.55403139  0.75492083     0.28990
H746        H  0.18679110  0.47013805  0.83884152     0.28980
H747        H  0.16974787  0.51869536  0.72143860     0.19580
H748        H  0.08493075  0.48152401  0.81340586     0.19580
C749        C  0.24206532  0.59723676  0.67736365    -0.06250
C750        C  0.25137543  0.56998656  0.69552175    -0.17380
C751        C  0.27791086  0.56644104  0.72039729     0.10950
C752        C  0.29580085  0.59081409  0.72892854    -0.06180
C753        C  0.28796415  0.61734574  0.70606820    -0.17410
C754        C  0.26163809  0.62074346  0.68034320     0.10980
S755        S  0.28552043  0.53118074  0.74625001    -0.32380
S756        S  0.25242922  0.65654179  0.65853164    -0.32380
H757        H  0.24346459  0.64686923  0.61265114     0.28990
H758        H  0.31491487  0.53146127  0.73196671     0.28980
H759        H  0.23690285  0.55149847  0.69301317     0.19580
H760        H  0.30126842  0.63639805  0.71197209     0.19580
C761        C  0.10944013  0.59615349  0.93613240    -0.06250
C762        C  0.11215990  0.62408999  0.91563714    -0.17380
C763        C  0.11467312  0.62831578  0.86557254     0.10950
C764        C  0.11485657  0.60403446  0.83460372    -0.06180
C765        C  0.11108328  0.57612828  0.85491606    -0.17410
C766        C  0.10854318  0.57189820  0.90515057     0.10980
S767        S  0.12004425  0.66497113  0.84410988    -0.32380
S768        S  0.10641075  0.53499267  0.92726366    -0.32380
H769        H  0.12687760  0.53882152  0.96463374     0.28990
H770        H  0.09323104  0.66567314  0.81945787     0.28980
H771        H  0.11290278  0.64289635  0.93901250     0.19580
H772        H  0.11099279  0.55731431  0.83158053     0.19580
C773        C  0.13244097  0.47500376  0.08111609    -0.06250
C774        C  0.16002729  0.46650014  0.06351221    -0.17380
C775        C  0.16383299  0.44133648  0.03497991     0.10950
C776        C  0.13958805  0.42379920  0.02310755    -0.06180
C777        C  0.11270294  0.43083093  0.04499280    -0.17410
C778        C  0.10891826  0.45580186  0.07354740     0.10980
S779        S  0.19933977  0.43498902  0.00959966    -0.32380
S780        S  0.07305515  0.46259008  0.09748373    -0.32380
H781        H  0.08272845  0.47757194  0.13872521     0.28990
H782        H  0.19883719  0.40497453  0.01954511     0.28980
H783        H  0.17847600  0.48073028  0.06881997     0.19580
H784        H  0.09376115  0.41775325  0.03691906     0.19580
C785        C  0.20722221  0.60072786  0.02855243    -0.06250
C786        C  0.20616839  0.57780175  0.99523329    -0.17380
C787        C  0.22211474  0.57898420  0.95254249     0.10950
C788        C  0.23958952  0.60336575  0.94335398    -0.06180
C789        C  0.23706140  0.62802834  0.97246462    -0.17410
C790        C  0.22194382  0.62661626  0.01613659     0.10980
S791        S  0.22194286  0.54772084  0.91350263    -0.32380
S792        S  0.22527242  0.65713475  0.05638387    -0.32380
H793        H  0.22853105  0.64003026  0.09868832     0.28990
H794        H  0.23437715  0.56200250  0.87314299     0.28980
H795        H  0.19329447  0.55857526  0.00276847     0.19580
H796        H  0.25064192  0.64679550  0.96535469     0.19580
C797        C  0.33819410  0.42888546  0.98648517    -0.06250
C798        C  0.31228741  0.44207628  0.97064979    -0.17380
C799        C  0.31270481  0.46747634  0.94163999     0.10950
C800        C  0.33955214  0.48039817  0.92791130    -0.06180
C801        C  0.36529948  0.46538181  0.93911346    -0.17410
C802        C  0.36489515  0.43984375  0.96774477     0.10980
S803        S  0.27815618  0.48386424  0.92652298    -0.32380
S804        S  0.39952762  0.42346246  0.98254759    -0.32380
H805        H  0.38841519  0.39549984  0.99180243     0.28990
H806        H  0.28811663  0.49889103  0.88502568     0.28980
H807        H  0.29165572  0.43414792  0.98441153     0.19580
H808        H  0.38603410  0.47482428  0.92897233     0.19580
C809        C  0.34756344  0.61914240  0.18229627    -0.06250
C810        C  0.37512312  0.61915206  0.16036045    -0.17380
C811        C  0.37836895  0.61283296  0.11093030     0.10950
C812        C  0.35338002  0.60705816  0.08256653    -0.06180
C813        C  0.32578017  0.60868031  0.10451865    -0.17410
C814        C  0.32262457  0.61475215  0.15367852     0.10980
S815        S  0.41492242  0.61025285  0.08763716    -0.32380
S816        S  0.28613028  0.61637357  0.17791568    -0.32380
H817        H  0.29255207  0.63559919  0.21582702     0.28990
H818        H  0.40961844  0.58496861  0.06074421     0.28980
H819        H  0.39435608  0.62204005  0.18254682     0.19580
H820        H  0.30629228  0.60533515  0.08315939     0.19580
C821        C  0.18143246  0.59711034  0.27726740    -0.06250
C822        C  0.18704407  0.57866079  0.31717604    -0.17380
C823        C  0.21125019  0.58321167  0.34785420     0.10950
C824        C  0.23065247  0.60651247  0.33846296    -0.06180
C825        C  0.22391240  0.62577311  0.30023052    -0.17410
C826        C  0.19979593  0.62143241  0.26989104     0.10980
S827        S  0.21785229  0.55695020  0.39552708    -0.32380
S828        S  0.19594018  0.64568020  0.21835131    -0.32380
H829        H  0.16544138  0.64470299  0.21653674     0.28990
H830        H  0.23476493  0.57535446  0.42451459     0.28980
H831        H  0.17346379  0.55973855  0.32297412     0.19580
H832        H  0.23903957  0.64305277  0.29124376     0.19580
C833        C  0.34467942  0.46423905  0.24394195    -0.06250
C834        C  0.34830986  0.45984783  0.29411206    -0.17380
C835        C  0.35441103  0.48301221  0.32406348     0.10950
C836        C  0.35685894  0.51066643  0.30301269    -0.06180
C837        C  0.35466769  0.51497172  0.25285821    -0.17410
C838        C  0.34798706  0.49202783  0.22294005     0.10980
S839        S  0.35727899  0.47639941  0.38859903    -0.32380
S840        S  0.34169024  0.50008631  0.15949280    -0.32380
H841        H  0.31926134  0.47963761  0.15388347     0.28990
H842        H  0.37463836  0.50070086  0.39872774     0.28980
H843        H  0.34664163  0.43826712  0.30998085     0.19580
H844        H  0.35574179  0.53674342  0.23750188     0.19580
C845        C  0.37264817  0.35746953  0.42799190    -0.06250
C846        C  0.34850891  0.34095208  0.41392813    -0.17380
C847        C  0.34416292  0.33335197  0.36548957     0.10950
C848        C  0.36412451  0.34283053  0.32984691    -0.06180
C849        C  0.38955532  0.35726739  0.34453655    -0.17410
C850        C  0.39405234  0.36470725  0.39326094     0.10980
S851        S  0.31203463  0.31275458  0.35099918    -0.32380
S852        S  0.42560688  0.38622259  0.40740266    -0.32380
H853        H  0.42825918  0.37718864  0.45600597     0.28990
H854        H  0.32333107  0.30057080  0.30824373     0.28980
H855        H  0.33229546  0.33482980  0.44072662     0.19580
H856        H  0.40481003  0.36499356  0.31744703     0.19580
C857        C  0.35117899  0.49605043  0.57887596    -0.06250
C858        C  0.32315592  0.50774790  0.57089413    -0.17380
C859        C  0.31899322  0.53468711  0.54689222     0.10950
C860        C  0.34331781  0.55017783  0.52899052    -0.06180
C861        C  0.37129187  0.53972238  0.54172006    -0.17410
C862        C  0.37546113  0.51298016  0.56566173     0.10980
S863        S  0.28226151  0.54640379  0.53537944    -0.32380
S864        S  0.41227947  0.49976763  0.57157488    -0.32380
H865        H  0.40741810  0.48328821  0.61396205     0.28990
H866        H  0.28793626  0.57560002  0.54657341     0.28980
H867        H  0.30426581  0.49490333  0.58063872     0.19580
H868        H  0.39037485  0.55121956  0.52872132     0.19580
C869        C  0.24761747  0.38155627  0.82209804    -0.06250
C870        C  0.25628276  0.40831740  0.80154244    -0.17380
C871        C  0.28345707  0.41190909  0.77878051     0.10950
C872        C  0.30271946  0.38800820  0.77488427    -0.06180
C873        C  0.29533923  0.36219849  0.80023521    -0.17410
C874        C  0.26813624  0.35866087  0.82334119     0.10980
S875        S  0.29039118  0.44636383  0.74962569    -0.32380
S876        S  0.25984608  0.32345551  0.84883502    -0.32380
H877        H  0.23109689  0.32247307  0.83158375     0.28990
H878        H  0.31919237  0.44794598  0.76664061     0.28980
H879        H  0.24098287  0.42628175  0.80078434     0.19580
H880        H  0.30967769  0.34354017  0.79778470     0.19580
C881        C  0.09725772  0.36211200  0.56953090    -0.06250
C882        C  0.08420818  0.38127499  0.60247200    -0.17380
C883        C  0.09018386  0.37958788  0.65227901     0.10950
C884        C  0.11030021  0.35880123  0.66992813    -0.06180
C885        C  0.12234968  0.33871482  0.63787192    -0.17410
C886        C  0.11587104  0.33986856  0.58812194     0.10980
S887        S  0.07254790  0.40556253  0.69129075    -0.32380
S888        S  0.13454991  0.31414310  0.55021337    -0.32380
H889        H  0.10856209  0.30275747  0.53133273     0.28990
H890        H  0.07137620  0.38748464  0.73268532     0.28980
H891        H  0.06986675  0.39828887  0.58916875     0.19580
H892        H  0.13770965  0.32267171  0.65140213     0.19580
C893        C  0.12914047  0.49701970  0.44357911    -0.06250
C894        C  0.14043707  0.49528652  0.49069906    -0.17380
C895        C  0.14785111  0.51997581  0.51679813     0.10950
C896        C  0.14092410  0.54791081  0.49847629    -0.06180
C897        C  0.13004035  0.55010103  0.45069612    -0.17410
C898        C  0.12499371  0.52495860  0.42241888     0.10980
S899        S  0.16450898  0.51418728  0.57537398    -0.32380
S900        S  0.11172768  0.53024236  0.36135786    -0.32380
H901        H  0.10495008  0.50122075  0.35126323     0.28990
H902        H  0.17832011  0.54139626  0.57712549     0.28980
H903        H  0.14328181  0.47427984  0.50796991     0.19580
H904        H  0.12404915  0.57124692  0.43626765     0.19580
C905        C  0.25160784  0.38829086  0.55989522    -0.06250
C906        C  0.24196109  0.41519629  0.54193839    -0.17380
C907        C  0.21806174  0.41687758  0.51148240     0.10950
C908        C  0.20342056  0.39105468  0.49975133    -0.06180
C909        C  0.21126116  0.36465850  0.52205913    -0.17410
C910        C  0.23560249  0.36284025  0.55131785     0.10980
S911        S  0.20818132  0.45227905  0.48829692    -0.32380
S912        S  0.24708911  0.32701716  0.57058532    -0.32380
H913        H  0.27512171  0.32953268  0.55035191     0.28990
H914        H  0.17869518  0.44571340  0.48279904     0.28980
H915        H  0.25428348  0.43475251  0.54917690     0.19580
H916        H  0.19973645  0.34480729  0.51357597     0.19580
C917        C  0.17608886  0.38572432  0.23281546    -0.06250
C918        C  0.18539469  0.35731283  0.22225145    -0.17380
C919        C  0.21089457  0.35209625  0.19513928     0.10950
C920        C  0.22753197  0.37567932  0.17714460    -0.06180
C921        C  0.21669123  0.40396054  0.18388765    -0.17410
C922        C  0.19129608  0.40919544  0.21110515     0.10980
S923        S  0.22302344  0.31498977  0.18985981    -0.32380
S924        S  0.18040289  0.44647568  0.21947903    -0.32380
H925        H  0.15081770  0.44039802  0.22774582     0.28990
H926        H  0.23989585  0.31944120  0.14785998     0.28980
H927        H  0.17428002  0.33903371  0.23894315     0.19580
H928        H  0.22933885  0.42232525  0.17100937     0.19580
C929        C  0.34310684  0.20738982  0.11423879    -0.06250
C930        C  0.36400437  0.22339715  0.08806698    -0.17380
C931        C  0.36148332  0.25349785  0.08191414     0.10950
C932        C  0.33752637  0.26830652  0.10208028    -0.06180
C933        C  0.31595912  0.25237496  0.12644905    -0.17410
C934        C  0.31865139  0.22226979  0.13342571     0.10980
S935        S  0.39009959  0.27212338  0.04942824    -0.32380
S936        S  0.29153583  0.20484993  0.17095997    -0.32380
H937        H  0.31165656  0.18764074  0.19695813     0.28990
H938        H  0.37310793  0.29613844  0.03494141     0.28980
H939        H  0.38254032  0.21241043  0.07217695     0.19580
H940        H  0.29812588  0.26378710  0.14372169     0.19580
C941        C  0.21408670  0.08839963  0.96733399    -0.06250
C942        C  0.22339498  0.11487420  0.98697645    -0.17380
C943        C  0.24491644  0.11563651  0.02154467     0.10950
C944        C  0.25907818  0.08952356  0.03376015    -0.06180
C945        C  0.25077072  0.06318551  0.01306786    -0.17410
C946        C  0.22762133  0.06211899  0.98118471     0.10980
S947        S  0.25254611  0.15060850  0.04820184    -0.32380
S948        S  0.21564173  0.02664554  0.96262874    -0.32380
H949        H  0.18688977  0.03097170  0.97879500     0.28990
H950        H  0.28285474  0.14783162  0.05049088     0.28980
H951        H  0.21297486  0.13518326  0.97692401     0.19580
H952        H  0.26209690  0.04340234  0.02238579     0.19580
C953        C  0.12533607  0.20719511  0.88355054    -0.06250
C954        C  0.14396803  0.21983856  0.84911965    -0.17380
C955        C  0.15194028  0.24917744  0.85213502     0.10950
C956        C  0.14095394  0.26660989  0.89009901    -0.06180
C957        C  0.12278425  0.25380557  0.92509062    -0.17410
C958        C  0.11498512  0.22440168  0.92233433     0.10980
S959        S  0.17564232  0.26354094  0.80556844    -0.32380
S960        S  0.09096676  0.21024884  0.96868320    -0.32380
H961        H  0.07795217  0.18892610  0.93965843     0.28990
H962        H  0.18703457  0.28618028  0.83367423     0.28980
H963        H  0.15297415  0.20663036  0.82044285     0.19580
H964        H  0.11325958  0.26717262  0.95315501     0.19580
C965        C  0.11571880  0.70073030  0.13738691    -0.06250
C966        C  0.13856172  0.71214059  0.16476477    -0.17380
C967        C  0.14560829  0.74168491  0.16259112     0.10950
C968        C  0.12821260  0.76125150  0.13472952    -0.06180
C969        C  0.10530729  0.74968609  0.10708179    -0.17410
C970        C  0.09916647  0.71975673  0.10762269     0.10980
S971        S  0.17844786  0.75224644  0.19362048    -0.32380
S972        S  0.06972784  0.70730068  0.06993885    -0.32380
H973        H  0.06363480  0.68200905  0.09693050     0.28990
H974        H  0.18745902  0.77174661  0.15692910     0.28980
H975        H  0.15235243  0.69754111  0.18561770     0.19580
H976        H  0.09164201  0.76407661  0.08562960     0.19580
C977        C  0.11781482  0.97946491  0.94717360    -0.06250
C978        C  0.09763240  0.97031223  0.98275095    -0.17380
C979        C  0.10204162  0.94519078  0.01142756     0.10950
C980        C  0.12678256  0.92729383  0.00411554    -0.06180
C981        C  0.14633874  0.93541834  0.96716062    -0.17410
C982        C  0.14192306  0.96064448  0.93827090     0.10980
S983        S  0.07688442  0.93926858  0.06081771    -0.32380
S984        S  0.16858263  0.96774206  0.89185142    -0.32380
H985        H  0.14761651  0.97375301  0.85588221     0.28990
H986        H  0.09823070  0.93255161  0.09576354     0.28980
H987        H  0.07905619  0.98394253  0.99097320     0.19580
H988        H  0.16560363  0.92228008  0.96130983     0.19580
C989        C  0.13433531  0.21676294  0.38654330    -0.06250
C990        C  0.15868406  0.23384203  0.37489525    -0.17380
C991        C  0.15624314  0.26390367  0.36836190     0.10950
C992        C  0.12886508  0.27744894  0.37368901    -0.06180
C993        C  0.10447313  0.26049559  0.38519511    -0.17410
C994        C  0.10682904  0.23033616  0.39119801     0.10980
S995        S  0.18872134  0.28373991  0.35225725    -0.32380
S996        S  0.07377772  0.21038023  0.40265513    -0.32380
H997        H  0.08003807  0.18801775  0.36973582     0.28990
H998        H  0.17449485  0.30584548  0.32574758     0.28980
H999        H  0.17970478  0.22356479  0.36981588     0.19580
H1000       H  0.08349629  0.27087947  0.39016554     0.19580
C1001       C  0.11523890  0.12723934  0.18049703    -0.06250
C1002       C  0.13860500  0.11765928  0.15210806    -0.17380
C1003       C  0.13434729  0.10805166  0.10487229     0.10950
C1004       C  0.10630782  0.10926547  0.08388916    -0.06180
C1005       C  0.08294208  0.11980345  0.11121639    -0.17410
C1006       C  0.08708892  0.12879738  0.15931588     0.10980
S1007       S  0.16572096  0.09375860  0.07347598    -0.32380
S1008       S  0.05584429  0.14285870  0.19110354    -0.32380
H1009       H  0.07179811  0.16208538  0.22020251     0.28990
H1010       H  0.15033204  0.07411612  0.04435378     0.28980
H1011       H  0.16009899  0.11550642  0.16794200     0.19580
H1012       H  0.06167145  0.12193465  0.09457779     0.19580
C1013       C  0.30303980  0.09368315  0.27959952    -0.06250
C1014       C  0.29448614  0.12168135  0.29462545    -0.17380
C1015       C  0.26822956  0.12657189  0.31947859     0.10950
C1016       C  0.24979367  0.10297782  0.33081008    -0.06180
C1017       C  0.26002013  0.07466964  0.32130480    -0.17410
C1018       C  0.28623392  0.06979810  0.29591556     0.10980
S1019       S  0.25863472  0.16363080  0.33295599    -0.32380
S1020       S  0.29466108  0.03301905  0.27915201    -0.32380
H1021       H  0.32480036  0.03614378  0.28564125     0.28990
H1022       H  0.24137987  0.15684698  0.37371280     0.28980
H1023       H  0.30702861  0.14035060  0.28269342     0.19580
H1024       H  0.24628213  0.05622232  0.32991337     0.19580
C1025       C  0.14763953  0.02234892  0.25965074    -0.06250
C1026       C  0.17078285  0.00305661  0.26870167    -0.17380
C1027       C  0.17448926  0.97851137  0.24046019     0.10950
C1028       C  0.15481930  0.97357650  0.20234740    -0.06180
C1029       C  0.13423765  0.99452071  0.18935586    -0.17410
C1030       C  0.13064184  0.01914445  0.21708503     0.10980
S1031       S  0.20273325  0.95314822  0.25784170    -0.32380
S1032       S  0.10378714  0.04489668  0.19596439    -0.32380
H1033       H  0.12198277  0.06860295  0.20507286     0.28990
H1034       H  0.18533131  0.92814288  0.25550267     0.28980
H1035       H  0.18485750  0.00590886  0.29983063     0.19580
H1036       H  0.11962201  0.99070495  0.15916408     0.19580
C1037       C  0.34264812  0.77276323  0.40373103    -0.06250
C1038       C  0.36894930  0.75744837  0.40808256    -0.17380
C1039       C  0.36933697  0.72722170  0.41321608     0.10950
C1040       C  0.34286754  0.71162823  0.41353014    -0.06180
C1041       C  0.31652105  0.72691649  0.41150074    -0.17410
C1042       C  0.31608238  0.75716095  0.40574632     0.10980
S1043       S  0.40437285  0.70966062  0.41850361    -0.32380
S1044       S  0.28099387  0.77400704  0.39668169    -0.32380
H1045       H  0.29058988  0.79331604  0.36014658     0.28990
H1046       H  0.39424013  0.68506957  0.44402291     0.28980
H1047       H  0.38940664  0.76911589  0.40789912     0.19580
H1048       H  0.29619348  0.71505018  0.41018222     0.19580
C1049       C  0.30251980  0.87516271  0.24454403    -0.06250
C1050       C  0.28831669  0.84827853  0.25066348    -0.17380
C1051       C  0.26124374  0.84253946  0.22868430     0.10950
C1052       C  0.24795103  0.86397140  0.19878469    -0.06180
C1053       C  0.26356241  0.88974243  0.18909252    -0.17410
C1054       C  0.29040898  0.89553650  0.21150655     0.10980
S1055       S  0.24372047  0.80803238  0.24031251    -0.32380
S1056       S  0.30768053  0.92975034  0.19761790    -0.32380
H1057       H  0.33615459  0.92002391  0.20731589     0.28990
H1058       H  0.26488265  0.79646774  0.27195292     0.28980
H1059       H  0.29735705  0.83250512  0.27588744     0.19580
H1060       H  0.25405586  0.90637277  0.16592326     0.19580
C1061       C  0.11812941  0.86440332  0.34759548    -0.06250
C1062       C  0.10009643  0.84331326  0.36907059    -0.17380
C1063       C  0.09066340  0.84602705  0.41743451     0.10950
C1064       C  0.09956704  0.87026098  0.44490200    -0.06180
C1065       C  0.11805303  0.89090969  0.42328647    -0.17410
C1066       C  0.12750867  0.88816293  0.37531504     0.10980
S1067       S  0.06643842  0.81865670  0.44124362    -0.32380
S1068       S  0.15232133  0.91471683  0.35001905    -0.32380
H1069       H  0.15674663  0.93059713  0.39278399     0.28990
H1070       H  0.05132497  0.83736489  0.47259202     0.28980
H1071       H  0.09240856  0.82531349  0.34753252     0.19580
H1072       H  0.12594359  0.90885462  0.44465390     0.19580
C1073       C  0.11996023  0.99682321  0.56817272    -0.06250
C1074       C  0.13606076  0.02013516  0.58737187    -0.17380
C1075       C  0.14002867  0.04632580  0.56073808     0.10950
C1076       C  0.12742602  0.04943885  0.51405235    -0.06180
C1077       C  0.11045667  0.02673281  0.49618266    -0.17410
C1078       C  0.10739335  0.00051979  0.52138837     0.10980
S1079       S  0.16265481  0.07393608  0.58707641    -0.32380
S1080       S  0.09106581  0.97135539  0.48766061    -0.32380
H1081       H  0.11445475  0.95221444  0.49639265     0.28990
H1082       H  0.15407064  0.09689852  0.55637712     0.28980
H1083       H  0.14635269  0.01762992  0.62253468     0.19580
H1084       H  0.10149294  0.02848650  0.45982245     0.19580
C1085       C  0.19997748  0.89753644  0.50083598    -0.06250
C1086       C  0.21505297  0.92392674  0.49780909    -0.17380
C1087       C  0.23750648  0.92745665  0.46446898     0.10950
C1088       C  0.24410981  0.90448828  0.43290234    -0.06180
C1089       C  0.22570525  0.88050374  0.43011287    -0.17410
C1090       C  0.20460514  0.87596781  0.46518861     0.10980
S1091       S  0.25925075  0.95984106  0.46819210    -0.32380
S1092       S  0.18799066  0.84043743  0.46602501    -0.32380
H1093       H  0.19396655  0.83532745  0.51553958     0.28990
H1094       H  0.28525209  0.94461631  0.47734291     0.28980
H1095       H  0.21065019  0.94109979  0.52347879     0.19580
H1096       H  0.23095481  0.86296437  0.40551426     0.19580
C1097       C  0.13487162  0.71453544  0.62278721    -0.06250
C1098       C  0.10819410  0.72880251  0.63059162    -0.17380
C1099       C  0.10636941  0.75895390  0.63381965     0.10950
C1100       C  0.13188585  0.77575963  0.62999804    -0.06180
C1101       C  0.15850762  0.76176421  0.62025467    -0.17410
C1102       C  0.16036347  0.73134611  0.61743249     0.10980
S1103       S  0.07057487  0.77461734  0.64060536    -0.32380
S1104       S  0.19588507  0.71540056  0.60979627    -0.32380
H1105       H  0.19146094  0.69272272  0.64356163     0.28990
H1106       H  0.07522996  0.79758440  0.60743206     0.28980
H1107       H  0.08839086  0.71622281  0.63439981     0.19580
H1108       H  0.17812027  0.77458171  0.61614032     0.19580
C1109       C  0.34080296  0.76815197  0.92706407    -0.06250
C1110       C  0.31531604  0.75179868  0.92317558    -0.17380
C1111       C  0.31648697  0.72148628  0.91908509     0.10950
C1112       C  0.34385884  0.70708531  0.91700164    -0.06180
C1113       C  0.36912810  0.72329767  0.92518196    -0.17410
C1114       C  0.36784584  0.75346731  0.93076069     0.10980
S1115       S  0.28220999  0.70258320  0.91731569    -0.32380
S1116       S  0.40167855  0.77225942  0.94079071    -0.32380
H1117       H  0.38920113  0.79649681  0.96366083     0.28990
H1118       H  0.29185098  0.67932357  0.94671883     0.28980
H1119       H  0.29446177  0.76276948  0.92079060     0.19580
H1120       H  0.39014101  0.71256483  0.92579598     0.19580
C1121       C  0.34921197  0.85020175  0.69048574    -0.06250
C1122       C  0.37668098  0.85423822  0.66916134    -0.17380
C1123       C  0.37962310  0.85858407  0.61891426     0.10950
C1124       C  0.35444106  0.85935093  0.58933281    -0.06180
C1125       C  0.32725279  0.85338321  0.61079763    -0.17410
C1126       C  0.32442312  0.84876294  0.66067819     0.10980
S1127       S  0.41590182  0.86318746  0.59527032    -0.32380
S1128       S  0.28839381  0.84226031  0.68446368    -0.32380
H1129       H  0.29750974  0.82646960  0.72573597     0.28990
H1130       H  0.41084624  0.84693117  0.55308996     0.28980
H1131       H  0.39580895  0.85547438  0.69205322     0.19580
H1132       H  0.30768599  0.85335524  0.58886984     0.19580
C1133       C  0.23078114  0.88471800  0.84053106    -0.06250
C1134       C  0.21496943  0.85960688  0.82899627    -0.17380
C1135       C  0.19090005  0.86080749  0.79711510     0.10950
C1136       C  0.18168351  0.88784428  0.77696516    -0.06180
C1137       C  0.19592134  0.91311318  0.79233716    -0.17410
C1138       C  0.21995066  0.91187154  0.82378233     0.10980
S1139       S  0.17540334  0.82669052  0.77887529    -0.32380
S1140       S  0.23740842  0.94574215  0.83844218    -0.32380
H1141       H  0.24928402  0.93592853  0.88275587     0.28990
H1142       H  0.17626368  0.83316112  0.72884144     0.28980
H1143       H  0.22320593  0.83859128  0.84061897     0.19580
H1144       H  0.18911082  0.93403586  0.77791676     0.19580
C1145       C  0.33685572  0.92689353  0.03987626    -0.06250
C1146       C  0.31322188  0.94576167  0.04678398    -0.17380
C1147       C  0.31655903  0.97214164  0.07192404     0.10950
C1148       C  0.34420451  0.98052431  0.09007042    -0.06180
C1149       C  0.36686958  0.96016564  0.08812836    -0.17410
C1150       C  0.36335181  0.93346551  0.06414553     0.10980
S1151       S  0.28510910  0.99536505  0.07657374    -0.32380
S1152       S  0.39453478  0.90965196  0.06172294    -0.32380
H1153       H  0.37854251  0.88424719  0.05267191     0.28990
H1154       H  0.29493006  0.01097815  0.11702604     0.28980
H1155       H  0.29275633  0.94131539  0.02883920     0.19580
H1156       H  0.38810450  0.96594095  0.10205745     0.19580
C1157       C  0.34795503  0.27026549  0.59927048    -0.06250
C1158       C  0.31959107  0.25870819  0.59657884    -0.17380
C1159       C  0.31480769  0.22877880  0.59268408     0.10950
C1160       C  0.33880499  0.20974161  0.59138410    -0.06180
C1161       C  0.36700027  0.22144793  0.58936401    -0.17410
C1162       C  0.37192636  0.25113824  0.59461618     0.10980
S1163       S  0.27783757  0.21602828  0.59439558    -0.32380
S1164       S  0.40933207  0.26226618  0.60056166    -0.32380
H1165       H  0.40427016  0.27811347  0.64324466     0.28990
H1166       H  0.28192207  0.19598006  0.55676252     0.28980
H1167       H  0.30086383  0.27299223  0.59867634     0.19580
H1168       H  0.38561850  0.20691850  0.58880512     0.19580
C1169       C  0.36926731  0.12487725  0.93560444    -0.06250
C1170       C  0.39204339  0.12382681  0.90196112    -0.17380
C1171       C  0.38679224  0.12918738  0.85245390     0.10950
C1172       C  0.35810842  0.13584665  0.83652848    -0.06180
C1173       C  0.33601075  0.13890425  0.87096365    -0.17410
C1174       C  0.34134587  0.13380896  0.92007136     0.10980
S1175       S  0.41700506  0.12428275  0.81144154    -0.32380
S1176       S  0.31085177  0.13670748  0.96062509    -0.32380
H1177       H  0.32705122  0.14644736  0.00052936     0.28990
H1178       H  0.40192211  0.10708114  0.77796193     0.28980
H1179       H  0.41350389  0.11699024  0.91375589     0.19580
H1180       H  0.31402091  0.14385065  0.85920607     0.19580
C1181       C  0.22485069  0.10126763  0.68498637    -0.06250
C1182       C  0.20962606  0.12578868  0.70130555    -0.17380
C1183       C  0.18346546  0.12307569  0.72778027     0.10950
C1184       C  0.17148868  0.09516896  0.73752019    -0.06180
C1185       C  0.18552998  0.07093984  0.71718133    -0.17410
C1186       C  0.21175541  0.07370513  0.69115981     0.10980
S1187       S  0.16895489  0.15574435  0.75404890    -0.32380
S1188       S  0.22869722  0.04093536  0.66945323    -0.32380
H1189       H  0.24396794  0.05448246  0.63122931     0.28990
H1190       H  0.16924259  0.14469633  0.80189561     0.28980
H1191       H  0.21963859  0.14699590  0.69775216     0.19580
H1192       H  0.17693240  0.04939224  0.72409882     0.19580
C1193       C  0.36476257  0.01962118  0.75405867    -0.06250
C1194       C  0.37428579  0.99451807  0.73061699    -0.17380
C1195       C  0.37773070  0.96889421  0.75674257     0.10950
C1196       C  0.37160764  0.96885264  0.80680699    -0.06180
C1197       C  0.36587215  0.99461673  0.83124486    -0.17410
C1198       C  0.36247894  0.02030534  0.80516840     0.10980
S1199       S  0.38655184  0.93630776  0.72369431    -0.32380
S1200       S  0.35378120  0.05264215  0.83872958    -0.32380
H1201       H  0.36734371  0.07165731  0.80571286     0.28990
H1202       H  0.39740002  0.92057699  0.76384988     0.28980
H1203       H  0.37679542  0.99428894  0.69147553     0.19580
H1204       H  0.36145276  0.99425296  0.86992385     0.19580
C1205       C  0.32577140  0.04091457  0.51354435    -0.06250
C1206       C  0.33706255  0.04408068  0.46623663    -0.17380
C1207       C  0.34499019  0.01955972  0.43850641     0.10950
C1208       C  0.34226077  0.99133444  0.45899373    -0.06180
C1209       C  0.32949446  0.98847737  0.50508987    -0.17410
C1210       C  0.32063187  0.01257911  0.53166984     0.10980
S1211       S  0.36057860  0.02589176  0.37934838    -0.32380
S1212       S  0.30494607  0.00581894  0.59087910    -0.32380
H1213       H  0.28989298  0.03238999  0.59360024     0.28990
H1214       H  0.37901904  0.00148801  0.37989001     0.28980
H1215       H  0.34182376  0.06563801  0.45230833     0.19580
H1216       H  0.32640395  0.96704580  0.52089813     0.19580
C1217       C  0.95460802  0.86367640  0.66139717    -0.06250
C1218       C  0.97082915  0.86428188  0.70454278    -0.17380
C1219       C  0.00075520  0.87001662  0.70397849     0.10950
C1220       C  0.01487730  0.87492094  0.65909690    -0.06180
C1221       C  0.99844811  0.87352198  0.61592720    -0.17410
C1222       C  0.96865924  0.86795654  0.61661315     0.10980
S1223       S  0.01897923  0.87267685  0.76164180    -0.32380
S1224       S  0.94962310  0.86808355  0.55929068    -0.32380
H1225       H  0.92808504  0.84799238  0.57284551     0.28990
H1226       H  0.03558959  0.89710508  0.74823690     0.28980
H1227       H  0.95994739  0.86146102  0.73892275     0.19580
H1228       H  0.00887873  0.87673171  0.58100599     0.19580
C1229       C  0.82988294  0.94922409  0.77211105    -0.06250
C1230       C  0.82498919  0.97476827  0.74573743    -0.17380
C1231       C  0.82325287  0.00108193  0.76920145     0.10950
C1232       C  0.82646089  0.00150249  0.82001636    -0.06180
C1233       C  0.82986897  0.97585566  0.84692576    -0.17410
C1234       C  0.83194768  0.94941448  0.82315586     0.10980
S1235       S  0.81876224  0.03331716  0.73185138    -0.32380
S1236       S  0.83925465  0.91727455  0.85928568    -0.32380
H1237       H  0.85679886  0.90323379  0.82479570     0.28990
H1238       H  0.80640277  0.05109098  0.76757698     0.28980
H1239       H  0.82298624  0.97423714  0.70672452     0.19580
H1240       H  0.83271153  0.97666268  0.88593483     0.19580
C1241       C  0.94817350  0.10996776  0.87446318    -0.06250
C1242       C  0.96323050  0.11167647  0.91847418    -0.17380
C1243       C  0.99350670  0.10980383  0.91989750     0.10950
C1244       C  0.00931690  0.10491267  0.87644067    -0.06180
C1245       C  0.99449752  0.10534099  0.83203968    -0.17410
C1246       C  0.96418561  0.10836680  0.83054662     0.10980
S1247       S  0.01052215  0.11443590  0.97842128    -0.32380
S1248       S  0.94744262  0.11081716  0.77152287    -0.32380
H1249       H  0.92458519  0.12919499  0.78603712     0.28990
H1250       H  0.03474125  0.12974604  0.96029232     0.28980
H1251       H  0.95131638  0.11377107  0.95224702     0.19580
H1252       H  0.00649739  0.10287937  0.79843863     0.19580
C1253       C  0.51456266  0.88273489  0.86661485    -0.06250
C1254       C  0.50374455  0.85527372  0.85412401    -0.17380
C1255       C  0.47413525  0.84872614  0.85920156     0.10950
C1256       C  0.45487348  0.87021949  0.87663106    -0.06180
C1257       C  0.46566665  0.89804330  0.88670105    -0.17410
C1258       C  0.49500962  0.90463077  0.88122247     0.10980
S1259       S  0.46282541  0.81218051  0.84616278    -0.32380
S1260       S  0.50603832  0.94152592  0.89296466    -0.32380
H1261       H  0.52957668  0.94150541  0.86025137     0.28990
H1262       H  0.44261828  0.81062896  0.88441500     0.28980
H1263       H  0.51868389  0.83822078  0.84347126     0.19580
H1264       H  0.45096945  0.91516257  0.89800480     0.19580
C1265       C  0.67916060  0.88290126  0.74616587    -0.06250
C1266       C  0.68513558  0.85388109  0.73387453    -0.17380
C1267       C  0.70995841  0.84639825  0.70675782     0.10950
C1268       C  0.72927198  0.86825421  0.69047272    -0.06180
C1269       C  0.72163186  0.89743521  0.69827544    -0.17410
C1270       C  0.69693337  0.90496021  0.72576461     0.10980
S1271       S  0.71734002  0.80837303  0.69767088    -0.32380
S1272       S  0.69018098  0.94303211  0.73582394    -0.32380
H1273       H  0.65996932  0.94013545  0.74247730     0.28990
H1274       H  0.73469907  0.81242247  0.65606933     0.28980
H1275       H  0.67180644  0.83662652  0.74897508     0.19580
H1276       H  0.73632042  0.91447053  0.68641112     0.19580
C1277       C  0.96316565  0.88912842  0.15612049    -0.06250
C1278       C  0.97862427  0.88865138  0.11202695    -0.17380
C1279       C  0.00846717  0.88349040  0.11063323     0.10950
C1280       C  0.02394743  0.88002739  0.15440739    -0.06180
C1281       C  0.00883074  0.88200608  0.19882589    -0.17410
C1282       C  0.97856658  0.88619274  0.20010940     0.10980
S1283       S  0.02553195  0.88193633  0.05186524    -0.32380
S1284       S  0.96063572  0.88515253  0.25819278    -0.32380
H1285       H  0.94305351  0.90953277  0.24849066     0.28990
H1286       H  0.03361753  0.85261213  0.05763855     0.28980
H1287       H  0.96697787  0.89074021  0.07792843     0.19580
H1288       H  0.02060488  0.87967025  0.23271574     0.19580
C1289       C  0.87405471  0.84533407  0.94186440    -0.06250
C1290       C  0.89547253  0.85306089  0.90814442    -0.17380
C1291       C  0.89262612  0.84552935  0.85923591     0.10950
C1292       C  0.86758131  0.83033519  0.84362332    -0.06180
C1293       C  0.84746228  0.82065247  0.87846388    -0.17410
C1294       C  0.85054545  0.82778964  0.92734538     0.10980
S1295       S  0.91933797  0.85974094  0.81773254    -0.32380
S1296       S  0.82244626  0.81594412  0.96882187    -0.32380
H1297       H  0.84022418  0.81458656  0.01031711     0.28990
H1298       H  0.92406899  0.83277112  0.79541089     0.28980
H1299       H  0.91353698  0.86652257  0.91935187     0.19580
H1300       H  0.82813088  0.80914167  0.86701044     0.19580
C1301       C  0.84805996  0.04554125  0.03071081    -0.06250
C1302       C  0.87463319  0.03099815  0.02341126    -0.17380
C1303       C  0.88060345  0.00413632  0.04596341     0.10950
C1304       C  0.85996427  0.99147226  0.07777985    -0.06180
C1305       C  0.83446144  0.00717630  0.08830544    -0.17410
C1306       C  0.82828424  0.03386520  0.06497262     0.10980
S1307       S  0.91396066  0.98592793  0.02963201    -0.32380
S1308       S  0.79417127  0.05134680  0.07828108    -0.32380
H1309       H  0.80348486  0.07964484  0.06657247     0.28990
H1310       H  0.91629650  0.96926543  0.07253531     0.28980
H1311       H  0.88991147  0.03939544  0.99678796     0.19580
H1312       H  0.81826304  0.99763026  0.11215412     0.19580
C1313       C  0.75513334  0.89032556  0.06520317    -0.06250
C1314       C  0.74514563  0.91747687  0.04865671    -0.17380
C1315       C  0.71942507  0.91964481  0.02242868     0.10950
C1316       C  0.70412511  0.89401668  0.01212389    -0.06180
C1317       C  0.71242995  0.86755355  0.03359190    -0.17410
C1318       C  0.73799875  0.86525413  0.05937266     0.10980
S1319       S  0.70752638  0.95526369  0.00298085    -0.32380
S1320       S  0.74913394  0.82902891  0.07722497    -0.32380
H1321       H  0.77606821  0.83061640  0.05298731     0.28990
H1322       H  0.67760932  0.94898375  0.00575826     0.28980
H1323       H  0.75804684  0.93682254  0.05445958     0.19580
H1324       H  0.70034168  0.84781960  0.02663318     0.19580
C1325       C  0.51233683  0.09586920  0.64945510    -0.06250
C1326       C  0.50095344  0.12303495  0.66251089    -0.17380
C1327       C  0.47101317  0.12868140  0.66051953     0.10950
C1328       C  0.45176388  0.10679352  0.64445553    -0.06180
C1329       C  0.46334607  0.07942779  0.63251431    -0.17410
C1330       C  0.49308490  0.07362634  0.63554803     0.10980
S1331       S  0.45914012  0.16468330  0.67613125    -0.32380
S1332       S  0.50492385  0.03713698  0.62216999    -0.32380
H1333       H  0.52853193  0.03713889  0.65468441     0.28990
H1334       H  0.44591812  0.15509794  0.71949774     0.28980
H1335       H  0.51558506  0.14041567  0.67249844     0.19580
H1336       H  0.44905174  0.06192818  0.62184000     0.19580
C1337       C  0.72445720  0.10007873  0.83363442    -0.06250
C1338       C  0.70759127  0.12432427  0.82008470    -0.17380
C1339       C  0.68134303  0.12127963  0.79422179     0.10950
C1340       C  0.67190320  0.09333081  0.77960194    -0.06180
C1341       C  0.68765459  0.06905981  0.79660496    -0.17410
C1342       C  0.71367224  0.07205835  0.82270491     0.10980
S1343       S  0.66260692  0.15415201  0.77690699    -0.32380
S1344       S  0.73402340  0.03927322  0.83481239    -0.32380
H1345       H  0.75983575  0.05010011  0.81415301     0.28990
H1346       H  0.63543694  0.14407877  0.79347050     0.28980
H1347       H  0.71543599  0.14591688  0.82823534     0.19580
H1348       H  0.68100915  0.04748458  0.78579806     0.19580
C1349       C  0.96146203  0.10241664  0.38107380    -0.06250
C1350       C  0.97777393  0.09461498  0.42286273    -0.17380
C1351       C  0.00814065  0.09685299  0.42431359     0.10950
C1352       C  0.02308832  0.10789850  0.38364897    -0.06180
C1353       C  0.00716396  0.11624261  0.34222099    -0.17410
C1354       C  0.97677782  0.11352267  0.34026457     0.10980
S1355       S  0.02655041  0.08412538  0.47837369    -0.32380
S1356       S  0.95940939  0.12382645  0.28409522    -0.32380
H1357       H  0.94410446  0.09750311  0.28032485     0.28990
H1358       H  0.05124972  0.07299667  0.45471992     0.28980
H1359       H  0.96692903  0.08623527  0.45496287     0.19580
H1360       H  0.01866393  0.12431547  0.31048386     0.19580
C1361       C  0.85049175  0.11020170  0.58579383    -0.06250
C1362       C  0.87001968  0.09396908  0.61407337    -0.17380
C1363       C  0.86989612  0.09533805  0.66474361     0.10950
C1364       C  0.84921101  0.11340738  0.68853952    -0.06180
C1365       C  0.83063874  0.13080724  0.66000379    -0.17410
C1366       C  0.83133068  0.12975532  0.60919432     0.10980
S1367       S  0.89663178  0.07361267  0.69719351    -0.32380
S1368       S  0.80777748  0.15457517  0.57688406    -0.32380
H1369       H  0.82777265  0.16041624  0.53942480     0.28990
H1370       H  0.90884704  0.05923141  0.65718811     0.28980
H1371       H  0.88510517  0.07945321  0.59625806     0.19580
H1372       H  0.81514678  0.14516586  0.67731541     0.19580
C1373       C  0.85491381  0.98525625  0.46592810    -0.06250
C1374       C  0.85842797  0.98761090  0.51635439    -0.17380
C1375       C  0.85257446  0.96477763  0.54827618     0.10950
C1376       C  0.84492252  0.93690967  0.53059778    -0.06180
C1377       C  0.84088586  0.93411274  0.48005952    -0.17410
C1378       C  0.84548581  0.95797610  0.44771590     0.10980
S1379       S  0.85318480  0.97405260  0.61188795    -0.32380
S1380       S  0.83957169  0.95194417  0.38400780    -0.32380
H1381       H  0.86311031  0.96922525  0.36869901     0.28990
H1382       H  0.82837826  0.95749056  0.62341627     0.28980
H1383       H  0.86414828  0.00831312  0.53212334     0.19580
H1384       H  0.83473659  0.91321773  0.46555946     0.19580
C1385       C  0.75764806  0.08354823  0.46653968    -0.06250
C1386       C  0.74664759  0.05684221  0.48335897    -0.17380
C1387       C  0.72696988  0.05569805  0.52165675     0.10950
C1388       C  0.71930323  0.08167994  0.54509690    -0.06180
C1389       C  0.73263757  0.10782302  0.53165231    -0.17410
C1390       C  0.75041006  0.10942856  0.49127829     0.10980
S1391       S  0.71081796  0.02102668  0.53597692    -0.32380
S1392       S  0.76153784  0.14548024  0.47295160    -0.32380
H1393       H  0.74898242  0.14317359  0.42652260     0.28990
H1394       H  0.68213184  0.03078060  0.52819433     0.28980
H1395       H  0.75252197  0.03680540  0.46541700     0.19580
H1396       H  0.72670052  0.12782709  0.54976704     0.19580
C1397       C  0.61757064  0.85461840  0.18038623    -0.06250
C1398       C  0.58859551  0.85223745  0.16404855    -0.17380
C1399       C  0.58113254  0.85694275  0.11514449     0.10950
C1400       C  0.60303890  0.86478623  0.08176502    -0.06180
C1401       C  0.63206590  0.86569776  0.09751538    -0.17410
C1402       C  0.63968466  0.86058947  0.14600330     0.10980
S1403       S  0.54349696  0.85260876  0.09813467    -0.32380
S1404       S  0.67793752  0.86292500  0.16060803    -0.32380
H1405       H  0.67508613  0.87540235  0.20647758     0.28990
H1406       H  0.54431545  0.86906861  0.05497449     0.28980
H1407       H  0.57145973  0.84755847  0.18999521     0.19580
H1408       H  0.64907957  0.87099537  0.07193558     0.19580
C1409       C  0.74790158  0.87809602  0.32596808    -0.06250
C1410       C  0.76729268  0.85454950  0.32533954    -0.17380
C1411       C  0.79489544  0.85690985  0.30352107     0.10950
C1412       C  0.80336188  0.88306085  0.27968568    -0.06180
C1413       C  0.78502042  0.90736403  0.28414813    -0.17410
C1414       C  0.75744316  0.90510528  0.30636208     0.10980
S1415       S  0.81791624  0.82512702  0.30481907    -0.32380
S1416       S  0.73411374  0.93664352  0.30319523    -0.32380
H1417       H  0.70900046  0.92128715  0.28976320     0.28990
H1418       H  0.84412725  0.84036944  0.29795746     0.28980
H1419       H  0.76062392  0.83391052  0.34090276     0.19580
H1420       H  0.79069606  0.92740686  0.26551833     0.19580
C1421       C  0.52116303  0.87546604  0.38242521    -0.06250
C1422       C  0.50496505  0.87587042  0.33904100    -0.17380
C1423       C  0.47463402  0.87909449  0.33918940     0.10950
C1424       C  0.45969214  0.88146767  0.38386334    -0.06180
C1425       C  0.47594754  0.88078673  0.42724427    -0.17410
C1426       C  0.50629577  0.87817639  0.42701555     0.10980
S1427       S  0.45665989  0.88132867  0.28112283    -0.32380
S1428       S  0.52472469  0.87998270  0.48466268    -0.32380
H1429       H  0.54700878  0.89831818  0.46762665     0.28990
H1430       H  0.43717884  0.90336128  0.29508457     0.28980
H1431       H  0.51611585  0.87415355  0.30449039     0.19580
H1432       H  0.46493443  0.88241532  0.46192470     0.19580
C1433       C  0.63010003  0.92594356  0.52725691    -0.06250
C1434       C  0.60170624  0.93699350  0.53259186    -0.17380
C1435       C  0.59627192  0.96323015  0.55697077     0.10950
C1436       C  0.61969908  0.97915884  0.57682991    -0.06180
C1437       C  0.64763206  0.96650721  0.57566718    -0.17410
C1438       C  0.65304573  0.94037711  0.55122590     0.10980
S1439       S  0.55909007  0.97561125  0.56003260    -0.32380
S1440       S  0.69008019  0.92736451  0.54967548    -0.32380
H1441       H  0.68284361  0.89803103  0.54259879     0.28990
H1442       H  0.56222389  0.98966456  0.60488480     0.28980
H1443       H  0.58381645  0.92630093  0.51454312     0.19580
H1444       H  0.66589430  0.97797584  0.59123013     0.19580
C1445       C  0.60006336  0.11673198  0.43125874    -0.06250
C1446       C  0.61844908  0.13870160  0.41247300    -0.17380
C1447       C  0.62097813  0.14416738  0.36261616     0.10950
C1448       C  0.60536878  0.12691352  0.32963455    -0.06180
C1449       C  0.58499935  0.10685008  0.34831156    -0.17410
C1450       C  0.58183772  0.10192776  0.39837483     0.10980
S1451       S  0.64474236  0.17327408  0.34374501    -0.32380
S1452       S  0.55467136  0.07605160  0.41721739    -0.32380
H1453       H  0.54398215  0.09364200  0.45481756     0.28990
H1454       H  0.62758142  0.18169348  0.30367382     0.28980
H1455       H  0.63184508  0.15139489  0.43664433     0.19580
H1456       H  0.57220252  0.09383362  0.32370788     0.19580
C1457       C  0.79772406  0.09657106  0.24488412    -0.06250
C1458       C  0.78373092  0.07304469  0.22268989    -0.17380
C1459       C  0.75790155  0.07669868  0.19593835     0.10950
C1460       C  0.74527479  0.10473427  0.19043192    -0.06180
C1461       C  0.76014710  0.12848220  0.21017496    -0.17410
C1462       C  0.78577250  0.12476118  0.23750511     0.10980
S1463       S  0.73983778  0.04404099  0.17679178    -0.32380
S1464       S  0.79974643  0.15650693  0.26718539    -0.32380
H1465       H  0.79922648  0.14379868  0.31388907     0.28990
H1466       H  0.73755926  0.05294111  0.12799887     0.28980
H1467       H  0.79199897  0.05124278  0.22879730     0.19580
H1468       H  0.75060621  0.14998200  0.20719900     0.19580
C1469       C  0.65259518  0.01866540  0.23940572    -0.06250
C1470       C  0.65188494  0.99206615  0.21589458    -0.17380
C1471       C  0.64826622  0.96688456  0.24253108     0.10950
C1472       C  0.64589835  0.96872971  0.29341439    -0.06180
C1473       C  0.64928710  0.99504378  0.31736828    -0.17410
C1474       C  0.65248372  0.02041206  0.29049253     0.10980
S1475       S  0.64522443  0.93345234  0.20928664    -0.32380
S1476       S  0.65461761  0.05429181  0.32283344    -0.32380
H1477       H  0.66898402  0.06984085  0.28573552     0.28990
H1478       H  0.65768225  0.91587279  0.24570503     0.28980
H1479       H  0.65180432  0.99110918  0.17655266     0.19580
H1480       H  0.64812279  0.99592453  0.35664095     0.19580
C1481       C  0.52198906  0.09590274  0.14075920    -0.06250
C1482       C  0.50847843  0.06844845  0.14271096    -0.17380
C1483       C  0.47809304  0.06572855  0.14613142     0.10950
C1484       C  0.46072253  0.09097418  0.14923979    -0.06180
C1485       C  0.47446242  0.11825373  0.14956190    -0.17410
C1486       C  0.50459350  0.12100573  0.14573738     0.10980
S1487       S  0.46287167  0.02976361  0.14326962    -0.32380
S1488       S  0.51933247  0.15718147  0.14936025    -0.32380
H1489       H  0.54246341  0.14928582  0.18027973     0.28990
H1490       H  0.44042222  0.03738551  0.11083862     0.28980
H1491       H  0.52162371  0.04895770  0.13991357     0.19580
H1492       H  0.46144180  0.13785317  0.15228166     0.19580
C1493       C  0.63054468  0.05296067  0.98959475    -0.06250
C1494       C  0.60239063  0.04271587  0.97958341    -0.17380
C1495       C  0.59792903  0.01691803  0.95346692     0.10950
C1496       C  0.62211702  0.00045695  0.93714161    -0.06180
C1497       C  0.65003176  0.01251873  0.94258473    -0.17410
C1498       C  0.65445663  0.03837877  0.96822186     0.10980
S1499       S  0.56086035  0.00571414  0.94370191    -0.32380
S1500       S  0.69143769  0.05081645  0.97461102    -0.32380
H1501       H  0.68411446  0.08028303  0.98032550     0.28990
H1502       H  0.56653950  0.99170651  0.89946539     0.28980
H1503       H  0.58374533  0.05369352  0.99514234     0.19580
H1504       H  0.66891636  0.00073653  0.92968810     0.19580
C1505       C  0.62935747  0.26532076  0.62324234    -0.06250
C1506       C  0.65370267  0.24900751  0.60988750    -0.17380
C1507       C  0.65375487  0.21874167  0.61408926     0.10950
C1508       C  0.62849758  0.20407673  0.63108498    -0.06180
C1509       C  0.60434759  0.22059379  0.64554994    -0.17410
C1510       C  0.60453668  0.25096001  0.64192559     0.10980
S1511       S  0.68749292  0.20052683  0.59994326    -0.32380
S1512       S  0.57332008  0.27022143  0.66510204    -0.32380
H1513       H  0.57273896  0.29154258  0.62834538     0.28990
H1514       H  0.68534255  0.18025771  0.63837012     0.28980
H1515       H  0.67328621  0.26005171  0.59793047     0.19580
H1516       H  0.58497723  0.20980571  0.65898857     0.19580
C1517       C  0.52203446  0.38277656  0.64741053    -0.06250
C1518       C  0.50620840  0.35711743  0.65420413    -0.17380
C1519       C  0.47602923  0.35769795  0.66007179     0.10950
C1520       C  0.46084480  0.38448633  0.65762435    -0.06180
C1521       C  0.47673179  0.41032066  0.65292947    -0.17410
C1522       C  0.50710068  0.40975200  0.64754621     0.10980
S1523       S  0.45802607  0.32335786  0.67026374    -0.32380
S1524       S  0.52521201  0.44398871  0.63740673    -0.32380
H1525       H  0.54627430  0.43300207  0.60527780     0.28990
H1526       H  0.43413425  0.33495738  0.69558295     0.28980
H1527       H  0.51752361  0.33643757  0.65601323     0.19580
H1528       H  0.46529664  0.43087627  0.64981938     0.19580
C1529       C  0.63186379  0.71433881  0.89230209    -0.06250
C1530       C  0.62506607  0.72938514  0.84891293    -0.17380
C1531       C  0.62403588  0.75964952  0.84658890     0.10950
C1532       C  0.63054939  0.77587690  0.88831270    -0.06180
C1533       C  0.63890417  0.76087146  0.93110618    -0.17410
C1534       C  0.63925136  0.73045319  0.93374225     0.10980
S1535       S  0.61512536  0.77613186  0.78895643    -0.32380
S1536       S  0.64757299  0.71379014  0.99155161    -0.32380
H1537       H  0.62508720  0.69317590  0.98908043     0.28990
H1538       H  0.58719780  0.78443214  0.80473471     0.28980
H1539       H  0.62008161  0.71741447  0.81625554     0.19580
H1540       H  0.64399242  0.77287666  0.96365571     0.19580
C1541       C  0.63765694  0.51686482  0.77748843    -0.06250
C1542       C  0.64494784  0.49172219  0.80347538    -0.17380
C1543       C  0.65049401  0.46622660  0.77907413     0.10950
C1544       C  0.64850873  0.46636386  0.72802848    -0.06180
C1545       C  0.64295494  0.49185451  0.70190887    -0.17410
C1546       C  0.63668523  0.51716641  0.72630454     0.10980
S1547       S  0.65878645  0.43416423  0.81496267    -0.32380
S1548       S  0.62516108  0.54817463  0.69037267    -0.32380
H1549       H  0.60476345  0.55846111  0.72430181     0.28990
H1550       H  0.67227923  0.41838794  0.77773036     0.28980
H1551       H  0.64638516  0.49200795  0.84276398     0.19580
H1552       H  0.64067417  0.49138604  0.66272858     0.19580
C1553       C  0.51328148  0.59577784  0.86800416    -0.06250
C1554       C  0.49676133  0.61313287  0.83587092    -0.17380
C1555       C  0.46658385  0.60953750  0.83126986     0.10950
C1556       C  0.45224840  0.58809276  0.85921580    -0.06180
C1557       C  0.46869796  0.57030431  0.89047247    -0.17410
C1558       C  0.49880844  0.57404492  0.89557072     0.10980
S1559       S  0.44732149  0.63385075  0.79080318    -0.32380
S1560       S  0.51684243  0.55215355  0.94109440    -0.32380
H1561       H  0.53436842  0.57497053  0.95781969     0.28990
H1562       H  0.42385648  0.61513206  0.78181122     0.28980
H1563       H  0.50743033  0.62962727  0.81395306     0.19580
H1564       H  0.45766945  0.55466300  0.91365023     0.19580
C1565       C  0.51461987  0.39615669  0.14240322    -0.06250
C1566       C  0.50008946  0.39553405  0.18715523    -0.17380
C1567       C  0.47007481  0.38998999  0.18952930     0.10950
C1568       C  0.45436307  0.38479916  0.14620085    -0.06180
C1569       C  0.46854822  0.38711713  0.10153068    -0.17410
C1570       C  0.49823910  0.39310464  0.09905398     0.10980
S1571       S  0.45327782  0.39039974  0.24879791    -0.32380
S1572       S  0.51390041  0.39664663  0.03909923    -0.32380
H1573       H  0.53562130  0.41649186  0.05255823     0.28990
H1574       H  0.42935686  0.37280125  0.23786607     0.28980
H1575       H  0.51234080  0.39796835  0.22046091     0.19580
H1576       H  0.45631562  0.38447091  0.06821709     0.19580
C1577       C  0.61659757  0.34843837  0.83526279    -0.06250
C1578       C  0.64126828  0.35109311  0.86478568    -0.17380
C1579       C  0.63871971  0.35683372  0.91431653     0.10950
C1580       C  0.61086852  0.36032797  0.93537830    -0.06180
C1581       C  0.58612422  0.35505736  0.90718384    -0.17410
C1582       C  0.58868877  0.34888669  0.85747056     0.10980
S1583       S  0.67202727  0.36056225  0.94833213    -0.32380
S1584       S  0.55556825  0.34232439  0.82431249    -0.32380
H1585       H  0.56843620  0.32356242  0.79036531     0.28990
H1586       H  0.66069079  0.35019605  0.99264098     0.28980
H1587       H  0.66280016  0.35055290  0.84872883     0.19580
H1588       H  0.56472410  0.35681501  0.92346704     0.19580
C1589       C  0.63084400  0.55519375  0.03144335    -0.06250
C1590       C  0.65587406  0.53862410  0.04119853    -0.17380
C1591       C  0.65438149  0.51262465  0.06845723     0.10950
C1592       C  0.62727753  0.50257837  0.08668967    -0.06180
C1593       C  0.60295349  0.52082323  0.08172183    -0.17410
C1594       C  0.60453345  0.54695741  0.05472377     0.10980
S1595       S  0.68736221  0.49154344  0.07447844    -0.32380
S1596       S  0.57153631  0.56775024  0.04751783    -0.32380
H1597       H  0.58529895  0.59399524  0.03473895     0.28990
H1598       H  0.67877804  0.47630253  0.11660974     0.28980
H1599       H  0.67616798  0.54433563  0.02348766     0.19580
H1600       H  0.58204555  0.51355627  0.09530879     0.19580
C1601       C  0.63087052  0.21470195  0.11906791    -0.06250
C1602       C  0.65319470  0.23085269  0.14077354    -0.17380
C1603       C  0.65127394  0.26091438  0.14569265     0.10950
C1604       C  0.62707825  0.27603260  0.12596655    -0.06180
C1605       C  0.60516402  0.25999617  0.10270246    -0.17410
C1606       C  0.60646302  0.22965654  0.09994416     0.10980
S1607       S  0.67973449  0.27797731  0.18026751    -0.32380
S1608       S  0.57541484  0.21148404  0.07452344    -0.32380
H1609       H  0.57259395  0.19197756  0.11386550     0.28990
H1610       H  0.66038691  0.29473340  0.20816912     0.28980
H1611       H  0.67189683  0.21977381  0.15627111     0.19580
H1612       H  0.58650677  0.27109298  0.08714719     0.19580
C1613       C  0.96034002  0.37894591  0.85013419    -0.06250
C1614       C  0.97646924  0.40428296  0.84220165    -0.17380
C1615       C  0.00688220  0.40336630  0.84057191     0.10950
C1616       C  0.02157929  0.37660009  0.84862772    -0.06180
C1617       C  0.00529634  0.35103043  0.85278141    -0.17410
C1618       C  0.97488518  0.35186348  0.85321843     0.10980
S1619       S  0.02542403  0.43701590  0.82726909    -0.32380
S1620       S  0.95485420  0.31816548  0.85760603    -0.32380
H1621       H  0.97900025  0.29938681  0.86032004     0.28990
H1622       H  0.04704884  0.42424322  0.79817280     0.28980
H1623       H  0.96539944  0.42502904  0.83895819     0.19580
H1624       H  0.01645356  0.33043251  0.85715964     0.19580
C1625       C  0.75996531  0.38872944  0.96636560    -0.06250
C1626       C  0.75494713  0.36404451  0.99536645    -0.17380
C1627       C  0.73506219  0.36477408  0.03302930     0.10950
C1628       C  0.72058092  0.39111557  0.04278360    -0.06180
C1629       C  0.72703635  0.41623418  0.01567407    -0.17410
C1630       C  0.74558413  0.41504121  0.97626105     0.10980
S1631       S  0.72792098  0.33096944  0.06445419    -0.32380
S1632       S  0.74839725  0.44722293  0.93855882    -0.32380
H1633       H  0.75148620  0.43196877  0.89477217     0.28990
H1634       H  0.69826085  0.33064010  0.05185819     0.28980
H1635       H  0.76662004  0.34395750  0.98882212     0.19580
H1636       H  0.71553669  0.43637960  0.02256664     0.19580
C1637       C  0.84963432  0.26926121  0.90824989    -0.06250
C1638       C  0.82188084  0.25822377  0.89696257    -0.17380
C1639       C  0.81564870  0.22867622  0.90041561     0.10950
C1640       C  0.83762059  0.20910604  0.91502394    -0.06180
C1641       C  0.86483588  0.21999169  0.92910096    -0.17410
C1642       C  0.87122179  0.24967641  0.92533837     0.10980
S1643       S  0.77914156  0.21736190  0.88576338    -0.32380
S1644       S  0.90783118  0.26048623  0.93946494    -0.32380
H1645       H  0.91100192  0.27657118  0.89614470     0.28990
H1646       H  0.77909600  0.19299396  0.91699833     0.28980
H1647       H  0.80454574  0.27272348  0.88548669     0.19580
H1648       H  0.88200053  0.20503714  0.93969186     0.19580
C1649       C  0.80165948  0.38572838  0.73418774    -0.06250
C1650       C  0.78401518  0.41010010  0.72515948    -0.17380
C1651       C  0.75691458  0.40740175  0.70166825     0.10950
C1652       C  0.74723550  0.37979501  0.68557181    -0.06180
C1653       C  0.76618058  0.35605896  0.69055637    -0.17410
C1654       C  0.79326528  0.35884257  0.71367496     0.10980
S1655       S  0.73411915  0.43930445  0.69938402    -0.32380
S1656       S  0.81533015  0.32654275  0.71972099    -0.32380
H1657       H  0.84170912  0.34130295  0.72712343     0.28990
H1658       H  0.70901513  0.42486356  0.71560375     0.28980
H1659       H  0.78967447  0.43068411  0.74140605     0.19580
H1660       H  0.75937768  0.33489880  0.67798827     0.19580
C1661       C  0.82641956  0.26381786  0.40418964    -0.06250
C1662       C  0.84047143  0.25024060  0.44348852    -0.17380
C1663       C  0.84783484  0.22061874  0.44193053     0.10950
C1664       C  0.84125283  0.20427018  0.40003326    -0.06180
C1665       C  0.82635131  0.21767868  0.36162764    -0.17410
C1666       C  0.81851335  0.24697377  0.36357704     0.10980
S1667       S  0.86707701  0.20540013  0.49329502    -0.32380
S1668       S  0.79943006  0.26218388  0.31194345    -0.32380
H1669       H  0.78624776  0.28509297  0.33738590     0.28990
H1670       H  0.88180969  0.18362495  0.46749961     0.28980
H1671       H  0.84755480  0.26314651  0.47396409     0.19580
H1672       H  0.82020093  0.20509977  0.33028266     0.19580
C1673       C  0.86134408  0.36781895  0.08323495    -0.06250
C1674       C  0.87112655  0.34129771  0.10333631    -0.17380
C1675       C  0.86534169  0.33390547  0.15210412     0.10950
C1676       C  0.84922877  0.35332450  0.18115480    -0.06180
C1677       C  0.84048719  0.38012138  0.16121770    -0.17410
C1678       C  0.84693821  0.38785735  0.11354383     0.10980
S1679       S  0.87783498  0.29910264  0.17424020    -0.32380
S1680       S  0.83718723  0.42427810  0.09460664    -0.32380
H1681       H  0.86161974  0.42821588  0.06442657     0.28990
H1682       H  0.85448227  0.29456510  0.20644843     0.28980
H1683       H  0.88222956  0.32575525  0.08049398     0.19580
H1684       H  0.82946062  0.39592838  0.18372749     0.19580
C1685       C  0.67264632  0.39406062  0.28418065    -0.06250
C1686       C  0.67903512  0.36746033  0.30786850    -0.17380
C1687       C  0.70493691  0.36320229  0.33454445     0.10950
C1688       C  0.72504720  0.38620872  0.33925505    -0.06180
C1689       C  0.71688792  0.41372099  0.32062612    -0.17410
C1690       C  0.69134672  0.41779641  0.29299315     0.10980
S1691       S  0.71276836  0.32693780  0.35598275    -0.32380
S1692       S  0.68589794  0.45286851  0.26473919    -0.32380
H1693       H  0.68191597  0.44205346  0.21760746     0.28990
H1694       H  0.74101207  0.32596566  0.33634917     0.28980
H1695       H  0.66529038  0.34883742  0.30104833     0.19580
H1696       H  0.73194204  0.43169504  0.32374313     0.19580
C1697       C  0.95168575  0.36529781  0.35976330    -0.06250
C1698       C  0.96611723  0.36515573  0.40439745    -0.17380
C1699       C  0.99585316  0.37090689  0.40730375     0.10950
C1700       C  0.01164111  0.37830729  0.36464546    -0.06180
C1701       C  0.99728577  0.37773721  0.31966504    -0.17410
C1702       C  0.96749261  0.37129577  0.31677028     0.10980
S1703       S  0.01232722  0.36735268  0.46657000    -0.32380
S1704       S  0.95069029  0.37279787  0.25761311    -0.32380
H1705       H  0.92772754  0.35367328  0.26800698     0.28990
H1706       H  0.03747498  0.35315216  0.44967612     0.28980
H1707       H  0.95400546  0.36073175  0.43744135     0.19580
H1708       H  0.00919053  0.38287098  0.28672884     0.19580
C1709       C  0.84097269  0.70649932  0.10646897    -0.06250
C1710       C  0.86907641  0.71785111  0.10102468    -0.17380
C1711       C  0.87451831  0.74755572  0.10623666     0.10950
C1712       C  0.85108446  0.76687205  0.11561591    -0.06180
C1713       C  0.82273387  0.75533418  0.11863245    -0.17410
C1714       C  0.81747835  0.72563030  0.11412417     0.10980
S1715       S  0.91199977  0.75867846  0.10246970    -0.32380
S1716       S  0.78024380  0.71351120  0.11831329    -0.32380
H1717       H  0.78393731  0.68911354  0.08851373     0.28990
H1718       H  0.91175478  0.77115766  0.14895644     0.28980
H1719       H  0.88731687  0.70319691  0.09598727     0.19580
H1720       H  0.80424268  0.76949593  0.12465680     0.19580
C1721       C  0.85686173  0.46294396  0.29203408    -0.06250
C1722       C  0.84095777  0.48737856  0.30502999    -0.17380
C1723       C  0.83717367  0.50986391  0.27199730     0.10950
C1724       C  0.85036198  0.50758919  0.22574877    -0.06180
C1725       C  0.86832739  0.48416955  0.21440118    -0.17410
C1726       C  0.87159239  0.46152219  0.24726033     0.10980
S1727       S  0.81458705  0.53971719  0.29188459    -0.32380
S1728       S  0.89287349  0.43046780  0.22888452    -0.32380
H1729       H  0.89883022  0.42020551  0.27613038     0.28990
H1730       H  0.81694998  0.55834284  0.25174558     0.28980
H1731       H  0.82941023  0.48781876  0.33938717     0.19580
H1732       H  0.87914179  0.48321165  0.17943469     0.19580
C1733       C  0.95336826  0.60333094  0.13909434    -0.06250
C1734       C  0.97088111  0.62352920  0.16311379    -0.17380
C1735       C  0.00103141  0.61919663  0.16781717     0.10950
C1736       C  0.01394781  0.59323465  0.15036702    -0.06180
C1737       C  0.99593650  0.57271567  0.12778811    -0.17410
C1738       C  0.96614899  0.57759354  0.12154776     0.10980
S1739       S  0.02165325  0.64825547  0.19427699    -0.32380
S1740       S  0.94517646  0.54922112  0.09361296    -0.32380
H1741       H  0.92856201  0.56810738  0.06436165     0.28990
H1742       H  0.04262571  0.64871875  0.15708142     0.28980
H1743       H  0.96102264  0.64295576  0.17788152     0.19580
H1744       H  0.00520594  0.55271957  0.11411352     0.19580
C1745       C  0.86127753  0.49359157  0.92995480    -0.06250
C1746       C  0.83490133  0.50900976  0.92513127    -0.17380
C1747       C  0.82888854  0.53375100  0.95331901     0.10950
C1748       C  0.84973016  0.54377039  0.98690566    -0.06180
C1749       C  0.87695243  0.52979682  0.98870657    -0.17410
C1750       C  0.88276690  0.50481961  0.96129406     0.10980
S1751       S  0.79358198  0.55048708  0.94723815    -0.32380
S1752       S  0.91681663  0.48628789  0.97202178    -0.32380
H1753       H  0.91744565  0.47154184  0.92752489     0.28990
H1754       H  0.80206879  0.57803000  0.96367334     0.28980
H1755       H  0.81785652  0.50030611  0.90236052     0.19580
H1756       H  0.89299777  0.53688959  0.01480720     0.19580
C1757       C  0.95340666  0.60709352  0.64459468    -0.06250
C1758       C  0.96799927  0.60869463  0.68929329    -0.17380
C1759       C  0.99833484  0.61248455  0.69134455     0.10950
C1760       C  0.01458958  0.61523183  0.64773794    -0.06180
C1761       C  0.99977112  0.61505133  0.60336368    -0.17410
C1762       C  0.96958107  0.61178864  0.60131616     0.10980
S1763       S  0.01507186  0.61148332  0.75052389    -0.32380
S1764       S  0.95310392  0.61509797  0.54213010    -0.32380
H1765       H  0.92857619  0.63058158  0.55844866     0.28990
H1766       H  0.03866774  0.59400563  0.73651909     0.28980
H1767       H  0.95593660  0.60565012  0.72276212     0.19580
H1768       H  0.01187859  0.61759217  0.56979921     0.19580
C1769       C  0.84293185  0.61218495  0.33432965    -0.06250
C1770       C  0.86982540  0.60836528  0.35779011    -0.17380
C1771       C  0.87181835  0.60498773  0.40821038     0.10950
C1772       C  0.84616656  0.60426291  0.43673774    -0.06180
C1773       C  0.81925270  0.60891767  0.41324884    -0.17410
C1774       C  0.81732177  0.61273359  0.36274845     0.10980
S1775       S  0.90790401  0.60294044  0.43338236    -0.32380
S1776       S  0.78138889  0.61658321  0.33711754    -0.32380
H1777       H  0.78635936  0.59848826  0.29714679     0.28990
H1778       H  0.90208167  0.62384929  0.46910608     0.28980
H1779       H  0.88968063  0.60820014  0.33650171     0.19580
H1780       H  0.79927057  0.60874056  0.43417015     0.19580
C1781       C  0.84408973  0.42852466  0.51577263    -0.06250
C1782       C  0.82304432  0.43452662  0.55152394    -0.17380
C1783       C  0.82495056  0.45938568  0.58145291     0.10950
C1784       C  0.84815728  0.47961723  0.57542911    -0.06180
C1785       C  0.86958278  0.47284091  0.54101731    -0.17410
C1786       C  0.86785169  0.44840134  0.51106300     0.10980
S1787       S  0.79644062  0.46432403  0.62531616    -0.32380
S1788       S  0.89522846  0.44557526  0.46371889    -0.32380
H1789       H  0.91497314  0.46616813  0.48159373     0.28990
H1790       H  0.81592238  0.46882156  0.66392382     0.28980
H1791       H  0.80482050  0.41986562  0.55607197     0.19580
H1792       H  0.88735790  0.48786323  0.53544617     0.19580
C1793       C  0.83958968  0.70228959  0.62038691    -0.06250
C1794       C  0.82098713  0.71584826  0.65348631    -0.17380
C1795       C  0.81489960  0.74552324  0.64970422     0.10950
C1796       C  0.82815475  0.76238028  0.61272947    -0.06180
C1797       C  0.84578052  0.74860742  0.57827686    -0.17410
C1798       C  0.85151064  0.71871183  0.58155673     0.10980
S1799       S  0.79163699  0.76125165  0.69534783    -0.32380
S1800       S  0.87561690  0.70316742  0.53698253    -0.32380
H1801       H  0.88700941  0.68121219  0.56737848     0.28990
H1802       H  0.78350148  0.78578302  0.66770449     0.28980
H1803       H  0.81084979  0.70315937  0.68218650     0.19580
H1804       H  0.85694071  0.76154182  0.55099635     0.19580
C1805       C  0.79281090  0.59485042  0.78823204    -0.06250
C1806       C  0.77724706  0.57135407  0.80844598    -0.17380
C1807       C  0.75202800  0.57561208  0.83659041     0.10950
C1808       C  0.74167815  0.60404034  0.84570865    -0.06180
C1809       C  0.75863904  0.62754872  0.82955123    -0.17410
C1810       C  0.78369302  0.62338205  0.80077419     0.10980
S1811       S  0.73190578  0.54376483  0.85500975    -0.32380
S1812       S  0.80017978  0.65556506  0.77532614    -0.32380
H1813       H  0.79632848  0.64671188  0.72694573     0.28990
H1814       H  0.71787363  0.55684770  0.89462335     0.28980
H1815       H  0.78359737  0.54935466  0.79948633     0.19580
H1816       H  0.75055661  0.64943921  0.83477298     0.19580
C1817       C  0.51617140  0.59578912  0.34340913    -0.06250
C1818       C  0.49783783  0.57211669  0.35166828    -0.17380
C1819       C  0.46783479  0.57613423  0.35633277     0.10950
C1820       C  0.45568691  0.60440916  0.35209405    -0.06180
C1821       C  0.47378879  0.62761414  0.33897291    -0.17410
C1822       C  0.50389304  0.62360075  0.33477337     0.10980
S1823       S  0.44612604  0.54432497  0.36795918    -0.32380
S1824       S  0.52585949  0.65507853  0.32114134    -0.32380
H1825       H  0.54972942  0.63956051  0.30248984     0.28990
H1826       H  0.44402598  0.55022537  0.41791647     0.28980
H1827       H  0.50709472  0.55078385  0.35853590     0.19580
H1828       H  0.46464854  0.64916693  0.33407324     0.19580
C1829       C  0.60261560  0.61532947  0.58422381    -0.06250
C1830       C  0.62634249  0.63202738  0.59947514    -0.17380
C1831       C  0.62909985  0.64073822  0.64773682     0.10950
C1832       C  0.60825726  0.63167944  0.68243125    -0.06180
C1833       C  0.58350917  0.61656064  0.66650519    -0.17410
C1834       C  0.58036360  0.60851250  0.61774696     0.10980
S1835       S  0.65994415  0.66301884  0.66291795    -0.32380
S1836       S  0.54937593  0.58670850  0.60192906    -0.32380
H1837       H  0.54369552  0.60125339  0.55790898     0.28990
H1838       H  0.64620388  0.67719498  0.70179749     0.28980
H1839       H  0.64310693  0.63806339  0.57357172     0.19580
H1840       H  0.56749327  0.60917218  0.69271657     0.19580
C1841       C  0.62386816  0.42610705  0.48859901    -0.06250
C1842       C  0.59639659  0.43971881  0.48830092    -0.17380
C1843       C  0.59152433  0.46597215  0.46279760     0.10950
C1844       C  0.61432285  0.47895532  0.43583699    -0.06180
C1845       C  0.64092819  0.46393541  0.43247122    -0.17410
C1846       C  0.64590477  0.43783993  0.45832297     0.10980
S1847       S  0.55669001  0.48347779  0.47022152    -0.32380
S1848       S  0.68148681  0.42149716  0.45371554    -0.32380
H1849       H  0.67245575  0.39322425  0.46622638     0.28990
H1850       H  0.55799440  0.50007528  0.42714224     0.28980
H1851       H  0.57934156  0.43136763  0.51174445     0.19580
H1852       H  0.65876625  0.47373001  0.41248400     0.19580
C1853       C  0.71597714  0.59274353  0.47822272    -0.06250
C1854       C  0.71582352  0.61539673  0.51174842    -0.17380
C1855       C  0.73215157  0.61338382  0.55392323     0.10950
C1856       C  0.74990613  0.58870710  0.56148598    -0.06180
C1857       C  0.75093591  0.56669080  0.52651849    -0.17410
C1858       C  0.73433484  0.56864469  0.48469423     0.10980
S1859       S  0.72806044  0.64215893  0.59749109    -0.32380
S1860       S  0.73721018  0.53982349  0.44095538    -0.32380
H1861       H  0.72787916  0.55661940  0.40090539     0.28990
H1862       H  0.73110677  0.62393720  0.63851386     0.28980
H1863       H  0.70087877  0.63351115  0.50730804     0.19580
H1864       H  0.76553368  0.54830950  0.53075851     0.19580
C1865       C  0.62110259  0.70408147  0.39952512    -0.06250
C1866       C  0.62360514  0.71798229  0.35446424    -0.17380
C1867       C  0.62655786  0.74801210  0.35103608     0.10950
C1868       C  0.62873531  0.76474264  0.39395330    -0.06180
C1869       C  0.62551878  0.75083216  0.43924159    -0.17410
C1870       C  0.62187238  0.72064074  0.44249422     0.10980
S1871       S  0.62551162  0.76345823  0.29052915    -0.32380
S1872       S  0.61971253  0.70448093  0.50235290    -0.32380
H1873       H  0.63486610  0.67885575  0.49093189     0.28990
H1874       H  0.60725373  0.78680233  0.30317552     0.28980
H1875       H  0.62256793  0.70532750  0.32149221     0.19580
H1876       H  0.62666479  0.76339227  0.47225954     0.19580
C1877       C  0.72791380  0.58938182  0.18593936    -0.06250
C1878       C  0.70979134  0.61371101  0.19152628    -0.17380
C1879       C  0.68359666  0.61202149  0.21767398     0.10950
C1880       C  0.67515384  0.58557982  0.24038469    -0.06180
C1881       C  0.69166718  0.56058041  0.23089235    -0.17410
C1882       C  0.71793995  0.56219796  0.20447068     0.10980
S1883       S  0.66272833  0.64504497  0.22386165    -0.32380
S1884       S  0.73940292  0.52945942  0.20150480    -0.32380
H1885       H  0.76503352  0.54270849  0.21799052     0.28990
H1886       H  0.63602835  0.63119542  0.23328469     0.28980
H1887       H  0.71670276  0.63458516  0.17718425     0.19580
H1888       H  0.68583574  0.54027435  0.24855843     0.19580
loop_ 
_geom_bond_atom_site_label_1 
_geom_bond_atom_site_label_2 
_geom_bond_distance 
_geom_bond_site_symmetry_2 
_ccdc_geom_bond_type 
Zn1           O5   1.967       .  S
Zn1           O6   2.130       .  S
Zn1          O10   2.083       .  S
Zn1          O17   2.119       .  S
Zn2           O5   1.927       .  S
Zn2           O7   1.978       .  S
Zn2           O9   1.959       .  S
Zn2          O13   1.954       .  S
Zn3           O5   1.939       .  S
Zn3           O8   1.955       .  S
Zn3          O11   2.015       .  S
Zn3          O14   2.021       .  S
Zn4           O5   1.906       .  S
Zn4          O12   2.017       .  S
Zn4          O15   1.952       .  S
Zn4          O16   1.991       .  S
O6           C18   1.287       .  A
O7           C19   1.266       .  A
O8           C20   1.273       .  A
O9           C18   1.267       .  A
O10          C20   1.287       .  A
O11          C19   1.269       .  A
O12          C21   1.272       .  A
O13          C22   1.265       .  A
O14          C21   1.271       .  A
O15          C22   1.266       .  A
O16          C23   1.270       .  A
O17          C23   1.285       .  A
C18        C1880   1.492       .  S
C19        C1865   1.465       .  S
C20        C1817   1.467       .  S
C21        C1829   1.475       .  S
C22        C1853   1.437       .  S
C23        C1844   1.491       .  S
Zn24         O28   1.944       .  S
Zn24         O29   2.067       .  S
Zn24         O33   2.085       .  S
Zn24         O40   2.062       .  S
Zn25         O28   1.901       .  S
Zn25         O30   2.056       .  S
Zn25         O32   2.021       .  S
Zn25         O36   2.055       .  S
Zn26         O28   1.956       .  S
Zn26         O31   2.033       .  S
Zn26         O34   2.061       .  S
Zn26         O37   1.968       .  S
Zn27         O28   1.910       .  S
Zn27         O35   1.938       .  S
Zn27         O38   1.987       .  S
Zn27         O39   1.952       .  S
O29          C41   1.286       .  A
O30          C42   1.282       .  A
O31          C43   1.280       .  A
O32          C41   1.281       .  A
O33          C43   1.285       .  A
O34          C42   1.279       .  A
O35          C44   1.260       .  A
O36          C45   1.277       .  A
O37          C44   1.267       .  A
O38          C45   1.270       .  A
O39          C46   1.260       .  A
O40          C46   1.275       .  A
C41        C1757   1.489       .  S
C42        C1784   1.518       .  S
C43        C1805   1.506       .  S
C44        C1856   1.450       .  S
C45        C1772   1.494       .  S
C46        C1793   1.469       .  S
Zn47         O51   1.948       .  S
Zn47         O52   2.062       .  S
Zn47         O56   2.039       .  S
Zn47         O63   2.072       .  S
Zn48         O51   1.923       .  S
Zn48         O53   1.969       .  S
Zn48         O55   1.963       .  S
Zn48         O59   1.928       .  S
Zn49         O51   1.938       .  S
Zn49         O54   2.007       .  S
Zn49         O57   2.062       .  S
Zn49         O60   2.051       .  S
Zn50         O51   1.950       .  S
Zn50         O58   2.047       .  S
Zn50         O61   1.964       .  S
Zn50         O62   2.035       .  S
O52          C64   1.274       .  A
O53          C65   1.266       .  A
O54          C66   1.280       .  A
O55          C64   1.261       .  A
O56          C66   1.284       .  A
O57          C65   1.276       .  A
O58          C67   1.276       .  A
O59          C68   1.261       .  A
O60          C67   1.278       .  A
O61          C68   1.267       .  A
O62          C69   1.277       .  A
O63          C69   1.282       .  A
C64        C1733   1.473       .  S
C65        C1769   1.483       .  S
C66        C1709   1.472       .  S
C67        C1877   1.500       .  S
C68        C1724   1.426       .  S
C69        C1748   1.492   1_554  S
Zn70         O74   1.935       .  S
Zn70         O75   2.035       .  S
Zn70         O79   1.946       .  S
Zn70         O86   2.035       .  S
Zn71         O74   1.892       .  S
Zn71         O76   1.982       .  S
Zn71         O78   1.972       .  S
Zn71         O82   1.915       .  S
Zn72         O74   1.964       .  S
Zn72         O77   2.122       .  S
Zn72         O80   2.139       .  S
Zn72         O83   2.174       .  S
Zn73         O74   1.911       .  S
Zn73         O81   1.960       .  S
Zn73         O84   1.955       .  S
Zn73         O85   1.977       .  S
O75          C87   1.270       .  A
O76          C88   1.267       .  A
O77          C89   1.295       .  A
O78          C87   1.267       .  A
O79          C89   1.275       .  A
O80          C88   1.286       .  A
O81          C90   1.260       .  A
O82          C91   1.264       .  A
O83          C90   1.289       .  A
O84          C91   1.267       .  A
O85          C92   1.263       .  A
O86          C92   1.271       .  A
C87        C1676   1.477       .  S
C88        C1688   1.503       .  S
C89        C1661   1.470       .  S
C90        C1781   1.517       .  S
C91        C1721   1.423       .  S
C92        C1697   1.468       .  S
Zn93         O97   1.870       .  S
Zn93         O98   1.961       .  S
Zn93        O102   1.975   1_556  S
Zn93        O109   1.930       .  S
Zn94         O97   1.951       .  S
Zn94         O99   2.081       .  S
Zn94        O101   2.133       .  S
Zn94        O105   2.143       .  S
Zn95         O97   1.926       .  S
Zn95        O100   2.043   1_556  S
Zn95        O103   1.968       .  S
Zn95        O106   2.039       .  S
Zn96         O97   1.907       .  S
Zn96        O104   1.962       .  S
Zn96        O107   1.939       .  S
Zn96        O108   1.948       .  S
O98         C110   1.265       .  A
O99         C111   1.290       .  A
O100        C112   1.275       .  A
O101        C110   1.285       .  A
O102        C112   1.269       .  A
O103        C111   1.277       .  A
O104        C113   1.267       .  A
O105        C114   1.289       .  A
O106        C113   1.272       .  A
O107        C114   1.265       .  A
O108        C115   1.266       .  A
O109        C115   1.261       .  A
C110       C1745   1.489       .  S
C111       C1613   1.472       .  S
C112       C1673   1.479       .  S
C113       C1637   1.488       .  S
C114       C1649   1.491       .  S
C115       C1625   1.443       .  S
Zn116       O120   1.923       .  S
Zn116       O121   1.992   1_554  S
Zn116       O125   1.903       .  S
Zn116       O132   1.973       .  S
Zn117       O120   1.939       .  S
Zn117       O122   2.008       .  S
Zn117       O124   2.037       .  S
Zn117       O128   1.943       .  S
Zn118       O120   1.932       .  S
Zn118       O123   1.951       .  S
Zn118       O126   1.995       .  S
Zn118       O129   1.963       .  S
Zn119       O120   1.975       .  S
Zn119       O127   2.152       .  S
Zn119       O130   2.111       .  S
Zn119       O131   2.130       .  S
O121        C133   1.268       .  A
O122        C134   1.271       .  A
O123        C135   1.263       .  A
O124        C133   1.270   1_554  A
O125        C135   1.262       .  A
O126        C134   1.268       .  A
O127        C136   1.291       .  A
O128        C137   1.272       .  A
O129        C136   1.268       .  A
O130        C137   1.291       .  A
O131        C138   1.285       .  A
O132        C138   1.267       .  A
C133       C1580   1.476       .  S
C134       C1604   1.485       .  S
C135       C1628   1.443       .  S
C136       C1685   1.499       .  S
C137       C1565   1.478       .  S
C138       C1592   1.494       .  S
Zn139       O143   1.926       .  S
Zn139       O144   1.983       .  S
Zn139       O148   1.953       .  S
Zn139       O155   2.022       .  S
Zn140       O143   1.969       .  S
Zn140       O145   2.129       .  S
Zn140       O147   2.132       .  S
Zn140       O151   2.092       .  S
Zn141       O143   1.933       .  S
Zn141       O146   1.903       .  S
Zn141       O149   1.966       .  S
Zn141       O152   1.980       .  S
Zn142       O143   1.931       .  S
Zn142       O150   2.041       .  S
Zn142       O153   1.960       .  S
Zn142       O154   2.025       .  S
O144        C156   1.271       .  A
O145        C157   1.283       .  A
O146        C158   1.261       .  A
O147        C156   1.289       .  A
O148        C158   1.268       .  A
O149        C157   1.263       .  A
O150        C159   1.271       .  A
O151        C160   1.290       .  A
O152        C159   1.266       .  A
O153        C160   1.276       .  A
O154        C161   1.273       .  A
O155        C161   1.271       .  A
C156       C1589   1.494   1_556  S
C157       C1808   1.492       .  S
C158       C1541   1.428       .  S
C159       C1832   1.481       .  S
C160       C1529   1.482       .  S
C161       C1553   1.490       .  S
Zn162       O166   1.935       .  S
Zn162       O167   2.095       .  S
Zn162       O171   2.058       .  S
Zn162       O178   2.048       .  S
Zn163       O166   1.949       .  S
Zn163       O168   1.951       .  S
Zn163       O170   2.013       .  S
Zn163       O174   2.034       .  S
Zn164       O166   1.915       .  S
Zn164       O169   1.973       .  S
Zn164       O172   1.899       .  S
Zn164       O175   1.978       .  S
Zn165       O166   1.935       .  S
Zn165       O173   2.054       .  S
Zn165       O176   2.067       .  S
Zn165       O177   2.000       .  S
O167        C179   1.284       .  A
O168        C180   1.265       .  A
O169        C181   1.264       .  A
O170        C179   1.275       .  A
O171        C181   1.276       .  A
O172        C180   1.262       .  A
O173        C182   1.276       .  A
O174        C183   1.275       .  A
O175        C182   1.265       .  A
O176        C183   1.280       .  A
O177        C184   1.278       .  A
O178        C184   1.284       .  A
C179       C1841   1.496       .  S
C180       C1544   1.424       .  S
C181       C1517   1.477       .  S
C182       C1577   1.485       .  S
C183       C1652   1.496       .  S
C184       C1505   1.467       .  S
Zn185       O189   1.921       .  S
Zn185       O190   2.025       .  S
Zn185       O194   1.997       .  S
Zn185       O201   1.948       .  S
Zn186       O189   1.915       .  S
Zn186       O191   1.984       .  S
Zn186       O193   2.057       .  S
Zn186       O197   2.047       .  S
Zn187       O189   1.922       .  S
Zn187       O192   2.100       .  S
Zn187       O195   2.061       .  S
Zn187       O198   2.068       .  S
Zn188       O189   1.905       .  S
Zn188       O196   1.971       .  S
Zn188       O199   1.982       .  S
Zn188       O200   1.907       .  S
O190        C202   1.274       .  A
O191        C203   1.279       .  A
O192        C204   1.286       .  A
O193        C202   1.278       .  A
O194        C204   1.274       .  A
O195        C203   1.287       .  A
O196        C205   1.265       .  A
O197        C206   1.275       .  A
O198        C205   1.279       .  A
O199        C206   1.267       .  A
O200        C207   1.263       .  A
O201        C207   1.266       .  A
C202       C1460   1.498       .  S
C203       C1601   1.482       .  S
C204       C1493   1.495   1_554  S
C205       C1481   1.482       .  S
C206       C1448   1.488       .  S
C207       C1469   1.424       .  S
Zn208       O212   1.951       .  S
Zn208       O213   1.992       .  S
Zn208       O217   2.071       .  S
Zn208       O224   2.062       .  S
Zn209       O212   1.960       .  S
Zn209       O214   2.087       .  S
Zn209       O216   2.047       .  S
Zn209       O220   2.055       .  S
Zn210       O212   1.950       .  S
Zn210       O215   2.033       .  S
Zn210       O218   1.996       .  S
Zn210       O221   1.932       .  S
Zn211       O212   1.938       .  S
Zn211       O219   1.927       .  S
Zn211       O222   1.971       .  S
Zn211       O223   1.970       .  S
O213        C225   1.277       .  A
O214        C226   1.283       .  A
O215        C227   1.274       .  A
O216        C225   1.284       .  A
O217        C227   1.279       .  A
O218        C226   1.272       .  A
O219        C228   1.265       .  A
O220        C229   1.274       .  A
O221        C228   1.262       .  A
O222        C229   1.265       .  A
O223        C230   1.265       .  A
O224        C230   1.276       .  A
C225       C1868   1.478       .  S
C226       C1433   1.493       .  S
C227       C1409   1.496       .  S
C228       C1472   1.424       .  S
C229       C1421   1.483       .  S
C230       C1397   1.480       .  S
Zn231       O235   1.927       .  S
Zn231       O236   2.072       .  S
Zn231       O240   2.083       .  S
Zn231       O247   2.083       .  S
Zn232       O235   1.908       .  S
Zn232       O237   1.945       .  S
Zn232       O239   1.956       .  S
Zn232       O243   1.997       .  S
Zn233       O235   1.964       .  S
Zn233       O238   2.020       .  S
Zn233       O241   1.976       .  S
Zn233       O244   2.060       .  S
Zn234       O235   1.871       .  S
Zn234       O242   2.033       .  S
Zn234       O245   2.023       .  S
Zn234       O246   1.991       .  S
O236        C248   1.277       .  A
O237        C249   1.257       .  A
O238        C250   1.280       .  A
O239        C248   1.261       .  A
O240        C250   1.287       .  A
O241        C249   1.265       .  A
O242        C251   1.280       .  A
O243        C252   1.271       .  A
O244        C251   1.279       .  A
O245        C252   1.276       .  A
O246        C253   1.277       .  A
O247        C253   1.288       .  A
C248       C1664   1.473       .  S
C249       C1385   1.458       .  S
C250       C1457   1.498       .  S
C251       C1373   1.510   1_545  S
C252       C1361   1.482       .  S
C253       C1349   1.501       .  S
Zn254       O258   1.949       .  S
Zn254       O259   2.066       .  S
Zn254       O263   1.999       .  S
Zn254       O270   2.061       .  S
Zn255       O258   1.909       .  S
Zn255       O260   1.947       .  S
Zn255       O262   1.960       .  S
Zn255       O266   1.902       .  S
Zn256       O258   1.959       .  S
Zn256       O261   2.037       .  S
Zn256       O264   2.060       .  S
Zn256       O267   2.071       .  S
Zn257       O258   1.959       .  S
Zn257       O265   2.010       .  S
Zn257       O268   1.983       .  S
Zn257       O269   2.036       .  S
O259        C271   1.275       .  A
O260        C272   1.261       .  A
O261        C273   1.282       .  A
O262        C271   1.264       .  A
O263        C273   1.278       .  A
O264        C272   1.275       .  A
O265        C274   1.275       .  A
O266        C275   1.263       .  A
O267        C274   1.280       .  A
O268        C275   1.267       .  A
O269        C276   1.277       .  A
O270        C276   1.279       .  A
C271       C1445   1.497       .  S
C272       C1508   1.482       .  S
C273       C1325   1.474       .  S
C274       C1340   1.500       .  S
C275       C1388   1.448       .  S
C276       C1436   1.500   1_545  S
Zn277       O281   1.902       .  S
Zn277       O282   1.987       .  S
Zn277       O286   1.932       .  S
Zn277       O293   1.956       .  S
Zn278       O281   1.924       .  S
Zn278       O283   2.014       .  S
Zn278       O285   2.014       .  S
Zn278       O289   1.937       .  S
Zn279       O281   1.919       .  S
Zn279       O284   1.948       .  S
Zn279       O287   1.995   1_554  S
Zn279       O290   1.996       .  S
Zn280       O281   1.955       .  S
Zn280       O288   2.104       .  S
Zn280       O291   2.096       .  S
Zn280       O292   2.136       .  S
O282        C294   1.269       .  A
O283        C295   1.269   1_554  A
O284        C296   1.267       .  A
O285        C294   1.270       .  A
O286        C296   1.263       .  A
O287        C295   1.269       .  A
O288        C297   1.283       .  A
O289        C298   1.272       .  A
O290        C297   1.272       .  A
O291        C298   1.288       .  A
O292        C299   1.288       .  A
O293        C299   1.267       .  A
C294       C1712   1.490       .  S
C295       C1289   1.464       .  S
C296       C1313   1.442       .  S
C297       C1304   1.489       .  S
C298       C1277   1.473       .  S
C299       C1412   1.497       .  S
Zn300       O304   1.923       .  S
Zn300       O305   2.036       .  S
Zn300       O309   2.058       .  S
Zn300       O316   2.073       .  S
Zn301       O304   1.920       .  S
Zn301       O306   2.062   1_556  S
Zn301       O308   1.995       .  S
Zn301       O312   2.045       .  S
Zn302       O304   1.905       .  S
Zn302       O307   1.954       .  S
Zn302       O310   1.984   1_556  S
Zn302       O313   1.889       .  S
Zn303       O304   1.928       .  S
Zn303       O311   1.992       .  S
Zn303       O314   2.047       .  S
Zn303       O315   2.035       .  S
O305        C317   1.284       .  A
O306        C318   1.274       .  A
O307        C319   1.263       .  A
O308        C317   1.280       .  A
O309        C319   1.275       .  A
O310        C318   1.263       .  A
O311        C320   1.272       .  A
O312        C321   1.277       .  A
O313        C320   1.261       .  A
O314        C321   1.278       .  A
O315        C322   1.280       .  A
O316        C322   1.284       .  A
C317       C1253   1.470       .  S
C318       C1400   1.475       .  S
C319       C1532   1.485       .  S
C320       C1316   1.447   1_556  S
C321       C1496   1.501   1_565  S
C322       C1265   1.496       .  S
Zn323       O327   1.932       .  S
Zn323       O328   2.023       .  S
Zn323       O332   2.030       .  S
Zn323       O339   2.059       .  S
Zn324       O327   1.934       .  S
Zn324       O329   2.059       .  S
Zn324       O331   2.009       .  S
Zn324       O335   2.055       .  S
Zn325       O327   1.915       .  S
Zn325       O330   1.976       .  S
Zn325       O333   1.949       .  S
Zn325       O336   1.938       .  S
Zn326       O327   1.944       .  S
Zn326       O334   1.961       .  S
Zn326       O337   2.036       .  S
Zn326       O338   2.025       .  S
O328        C340   1.281       .  A
O329        C341   1.277       .  A
O330        C342   1.265       .  A
O331        C340   1.280       .  A
O332        C342   1.272       .  A
O333        C341   1.262       .  A
O334        C343   1.265       .  A
O335        C344   1.278       .  A
O336        C343   1.265       .  A
O337        C344   1.277       .  A
O338        C345   1.276       .  A
O339        C345   1.280       .  A
C340       C1640   1.472       .  S
C341       C1364   1.490       .  S
C342       C1241   1.477       .  S
C343       C1232   1.429       .  S
C344       C1337   1.495       .  S
C345       C1301   1.491   1_556  S
Zn346       O350   1.934       .  S
Zn346       O351   1.951       .  S
Zn346       O355   1.975       .  S
Zn346       O362   1.984       .  S
Zn347       O350   1.889       .  S
Zn347       O352   2.002       .  S
Zn347       O354   1.953       .  S
Zn347       O358   1.960       .  S
Zn348       O350   1.909       .  S
Zn348       O353   2.023       .  S
Zn348       O356   2.005       .  S
Zn348       O359   1.942       .  S
Zn349       O350   1.959       .  S
Zn349       O357   2.103       .  S
Zn349       O360   2.146       .  S
Zn349       O361   2.113       .  S
O351        C363   1.266       .  A
O352        C364   1.269       .  A
O353        C365   1.270       .  A
O354        C363   1.268       .  A
O355        C365   1.267       .  A
O356        C364   1.270       .  A
O357        C366   1.291       .  A
O358        C367   1.268       .  A
O359        C366   1.273       .  A
O360        C367   1.289       .  A
O361        C368   1.283       .  A
O362        C368   1.268       .  A
C363       C1229   1.434       .  S
C364       C1217   1.463       .  S
C365       C1292   1.475       .  S
C366       C1796   1.464       .  S
C367       C1376   1.507       .  S
C368       C1268   1.488       .  S
Zn369       O373   1.973       .  S
Zn369       O374   2.128       .  S
Zn369       O378   2.086       .  S
Zn369       O385   2.114       .  S
Zn370       O373   1.914       .  S
Zn370       O375   1.978       .  S
Zn370       O377   1.935       .  S
Zn370       O381   1.943       .  S
Zn371       O373   1.934       .  S
Zn371       O376   1.947       .  S
Zn371       O379   2.015       .  S
Zn371       O382   2.000       .  S
Zn372       O373   1.930       .  S
Zn372       O380   1.994       .  S
Zn372       O383   1.962       .  S
Zn372       O384   2.003       .  S
O374        C386   1.286       .  A
O375        C387   1.266       .  A
O376        C388   1.273       .  A
O377        C386   1.265       .  A
O378        C388   1.287       .  A
O379        C387   1.266       .  A
O380        C389   1.271       .  A
O381        C390   1.264       .  A
O382        C389   1.268       .  A
O383        C390   1.269       .  A
O384        C391   1.272       .  A
O385        C391   1.284       .  A
C386       C1205   1.482       .  S
C387       C1328   1.486       .  S
C388       C1160   1.474       .  S
C389       C1172   1.472       .  S
C390       C1193   1.444       .  S
C391       C1181   1.493       .  S
Zn392       O396   1.931       .  S
Zn392       O397   1.957       .  S
Zn392       O401   1.969       .  S
Zn392       O408   1.943       .  S
Zn393       O396   1.912       .  S
Zn393       O398   1.979       .  S
Zn393       O400   1.936       .  S
Zn393       O404   1.970       .  S
Zn394       O396   1.948       .  S
Zn394       O399   2.017       .  S
Zn394       O402   2.019       .  S
Zn394       O405   1.962       .  S
Zn395       O396   1.974       .  S
Zn395       O403   2.105       .  S
Zn395       O406   2.133       .  S
Zn395       O407   2.167       .  S
O397        C409   1.264       .  A
O398        C410   1.266       .  A
O399        C411   1.268       .  A
O400        C409   1.266       .  A
O401        C411   1.266       .  A
O402        C410   1.269       .  A
O403        C412   1.290       .  A
O404        C413   1.268       .  A
O405        C412   1.274       .  A
O406        C413   1.287       .  A
O407        C414   1.291       .  A
O408        C414   1.264       .  A
C409       C1196   1.431       .  S
C410       C1121   1.468       .  S
C411       C1256   1.474       .  S
C412       C1109   1.477       .  S
C413       C1133   1.496       .  S
C414       C1145   1.501   1_556  S
Zn415       O419   1.926       .  S
Zn415       O420   2.065       .  S
Zn415       O424   2.088       .  S
Zn415       O431   2.063       .  S
Zn416       O419   1.904       .  S
Zn416       O421   2.010       .  S
Zn416       O423   1.968       .  S
Zn416       O427   2.029       .  S
Zn417       O419   1.933       .  S
Zn417       O422   2.044       .  S
Zn417       O425   2.071       .  S
Zn417       O428   2.008       .  S
Zn418       O419   1.916       .  S
Zn418       O426   1.902       .  S
Zn418       O429   1.990       .  S
Zn418       O430   1.964       .  S
O420        C432   1.286       .  A
O421        C433   1.274       .  A
O422        C434   1.283       .  A
O423        C432   1.275       .  A
O424        C434   1.287       .  A
O425        C433   1.279       .  A
O426        C435   1.259       .  A
O427        C436   1.271       .  A
O428        C435   1.275       .  A
O429        C436   1.265       .  A
O430        C437   1.263       .  A
O431        C437   1.278       .  A
C432       C1220   1.481       .  S
C433       C1073   1.499       .  S
C434       C1136   1.501       .  S
C435       C1085   1.456       .  S
C436       C1064   1.480       .  S
C437       C1100   1.476       .  S
Zn438       O442   1.916       .  S
Zn438       O443   2.014       .  S
Zn438       O447   2.043       .  S
Zn438       O454   2.037       .  S
Zn439       O442   1.920       .  S
Zn439       O444   2.040       .  S
Zn439       O446   2.048       .  S
Zn439       O450   2.059       .  S
Zn440       O442   1.910       .  S
Zn440       O445   1.972       .  S
Zn440       O448   1.973       .  S
Zn440       O451   1.928       .  S
Zn441       O442   1.974       .  S
Zn441       O449   1.976       .  S
Zn441       O452   2.023       .  S
Zn441       O453   2.045       .  S
O443        C455   1.279       .  A
O444        C456   1.275       .  A
O445        C457   1.268       .  A
O446        C455   1.283       .  A
O447        C457   1.274       .  A
O448        C456   1.265       .  A
O449        C458   1.265       .  A
O450        C459   1.281       .  A
O451        C458   1.267       .  A
O452        C459   1.277       .  A
O453        C460   1.277       .  A
O454        C460   1.278       .  A
C455       C1424   1.487       .  S
C456       C1037   1.480       .  S
C457       C1124   1.484       .  S
C458       C1088   1.443       .  S
C459       C1049   1.496       .  S
C460       C1208   1.491       .  S
Zn461       O465   1.930       .  S
Zn461       O466   1.958       .  S
Zn461       O470   1.941       .  S
Zn461       O477   1.968       .  S
Zn462       O465   1.944       .  S
Zn462       O467   2.099       .  S
Zn462       O469   2.075       .  S
Zn462       O473   2.063       .  S
Zn463       O465   1.921       .  S
Zn463       O468   1.969       .  S
Zn463       O471   1.995       .  S
Zn463       O474   2.028       .  S
Zn464       O465   1.927       .  S
Zn464       O472   2.067       .  S
Zn464       O475   1.988       .  S
Zn464       O476   2.044       .  S
O466        C478   1.263       .  A
O467        C479   1.286       .  A
O468        C480   1.269       .  A
O469        C478   1.277       .  A
O470        C480   1.264       .  A
O471        C479   1.276       .  A
O472        C481   1.279       .  A
O473        C482   1.287       .  A
O474        C481   1.274       .  A
O475        C482   1.277       .  A
O476        C483   1.276       .  A
O477        C483   1.264       .  A
C478       C1352   1.476       .  S
C479       C1076   1.486       .  S
C480       C1025   1.462       .  S
C481       C1016   1.498       .  S
C482        C989   1.475       .  S
C483       C1001   1.479       .  S
Zn484       O488   1.943       .  S
Zn484       O489   2.041       .  S
Zn484       O493   2.084       .  S
Zn484       O500   2.095       .  S
Zn485       O488   1.918       .  S
Zn485       O490   1.975       .  S
Zn485       O492   1.970       .  S
Zn485       O496   1.930       .  S
Zn486       O488   1.932       .  S
Zn486       O491   2.002       .  S
Zn486       O494   2.059       .  S
Zn486       O497   2.062       .  S
Zn487       O488   1.959       .  S
Zn487       O495   2.032       .  S
Zn487       O498   1.963       .  S
Zn487       O499   2.033       .  S
O489        C501   1.274       .  A
O490        C502   1.267       .  A
O491        C503   1.277       .  A
O492        C501   1.265       .  A
O493        C503   1.289       .  A
O494        C502   1.275       .  A
O495        C504   1.278       .  A
O496        C505   1.266       .  A
O497        C504   1.280       .  A
O498        C505   1.265       .  A
O499        C506   1.276       .  A
O500        C506   1.284       .  A
C501       C1280   1.475       .  S
C502       C1061   1.474       .  S
C503        C968   1.497       .  S
C504       C1052   1.503       .  S
C505       C1028   1.435       .  S
C506        C980   1.503       .  S
Zn507       O511   1.952       .  S
Zn507       O512   1.989       .  S
Zn507       O516   2.065   1_556  S
Zn507       O523   2.069       .  S
Zn508       O511   1.967       .  S
Zn508       O513   2.096       .  S
Zn508       O515   2.060       .  S
Zn508       O519   2.092       .  S
Zn509       O511   1.913       .  S
Zn509       O514   1.927   1_556  S
Zn509       O517   1.937       .  S
Zn509       O520   1.857       .  S
Zn510       O511   1.965       .  S
Zn510       O518   1.958       .  S
Zn510       O521   2.011       .  S
Zn510       O522   2.063       .  S
O512        C524   1.279       .  A
O513        C525   1.276       .  A
O514        C526   1.258       .  A
O515        C524   1.287       .  A
O516        C526   1.273       .  A
O517        C525   1.256       .  A
O518        C527   1.264       .  A
O519        C528   1.285       .  A
O520        C527   1.258       .  A
O521        C528   1.276       .  A
O522        C529   1.277       .  A
O523        C529   1.280       .  A
C524       C1244   1.475       .  S
C525        C953   1.478       .  S
C526       C1004   1.466       .  S
C527        C941   1.441       .  S
C528       C1184   1.501       .  S
C529        C977   1.523   1_545  S
Zn530       O534   1.967       .  S
Zn530       O535   2.112       .  S
Zn530       O539   2.140       .  S
Zn530       O546   2.144       .  S
Zn531       O534   1.927       .  S
Zn531       O536   2.020       .  S
Zn531       O538   1.946       .  S
Zn531       O542   2.020       .  S
Zn532       O534   1.931       .  S
Zn532       O537   1.988       .  S
Zn532       O540   2.000   1_554  S
Zn532       O543   1.907       .  S
Zn533       O534   1.920       .  S
Zn533       O541   1.926       .  S
Zn533       O544   2.006       .  S
Zn533       O545   1.938       .  S
O535        C547   1.292       .  A
O536        C548   1.269   1_554  A
O537        C549   1.269       .  A
O538        C547   1.273       .  A
O539        C549   1.287       .  A
O540        C548   1.270       .  A
O541        C550   1.262       .  A
O542        C551   1.272       .  A
O543        C550   1.261       .  A
O544        C551   1.267       .  A
O545        C552   1.266       .  A
O546        C552   1.290       .  A
C547       C1484   1.480       .  S
C548       C1169   1.469       .  S
C549       C1148   1.500   1_545  S
C550        C944   1.424       .  S
C551        C929   1.487       .  S
C552       C1013   1.496       .  S
Zn553       O557   1.928       .  S
Zn553       O558   2.027       .  S
Zn553       O562   1.999       .  S
Zn553       O569   2.056       .  S
Zn554       O557   1.931       .  S
Zn554       O559   2.065       .  S
Zn554       O561   2.094       .  S
Zn554       O565   2.051       .  S
Zn555       O557   1.903       .  S
Zn555       O560   1.895       .  S
Zn555       O563   1.956       .  S
Zn555       O566   1.980       .  S
Zn556       O557   1.921       .  S
Zn556       O564   2.058       .  S
Zn556       O567   2.012       .  S
Zn556       O568   2.056       .  S
O558        C570   1.279       .  A
O559        C571   1.275       .  A
O560        C572   1.261       .  A
O561        C570   1.287       .  A
O562        C572   1.273       .  A
O563        C571   1.262       .  A
O564        C573   1.275       .  A
O565        C574   1.286       .  A
O566        C573   1.264       .  A
O567        C574   1.281       .  A
O568        C575   1.279       .  A
O569        C575   1.278       .  A
C570        C917   1.497       .  S
C571        C992   1.469       .  S
C572        C908   1.445       .  S
C573        C881   1.489       .  S
C574       C1700   1.481       .  S
C575        C893   1.492       .  S
Zn576       O580   1.965       .  S
Zn576       O581   2.098       .  S
Zn576       O585   2.125       .  S
Zn576       O592   2.107       .  S
Zn577       O580   1.939       .  S
Zn577       O582   2.011       .  S
Zn577       O584   1.956       .  S
Zn577       O588   2.020       .  S
Zn578       O580   1.943       .  S
Zn578       O583   1.973       .  S
Zn578       O586   1.989       .  S
Zn578       O589   1.949       .  S
Zn579       O580   1.924       .  S
Zn579       O587   1.920       .  S
Zn579       O590   1.999       .  S
Zn579       O591   1.991       .  S
O581        C593   1.289       .  A
O582        C594   1.270       .  A
O583        C595   1.268       .  A
O584        C593   1.273       .  A
O585        C595   1.286       .  A
O586        C594   1.268       .  A
O587        C596   1.264       .  A
O588        C597   1.269       .  A
O589        C596   1.264       .  A
O590        C597   1.269       .  A
O591        C598   1.270       .  A
O592        C598   1.283       .  A
C593       C1520   1.476       .  S
C594       C1157   1.485       .  S
C595        C872   1.502       .  S
C596        C905   1.438       .  S
C597        C845   1.471       .  S
C598        C857   1.490       .  S
Zn599       O603   1.956       .  S
Zn599       O604   2.085       .  S
Zn599       O608   2.155       .  S
Zn599       O615   2.137       .  S
Zn600       O603   1.928       .  S
Zn600       O605   2.046       .  S
Zn600       O607   1.973       .  S
Zn600       O611   2.020       .  S
Zn601       O603   1.909       .  S
Zn601       O606   1.932       .  S
Zn601       O609   1.962       .  S
Zn601       O612   1.949       .  S
Zn602       O603   1.887       .  S
Zn602       O610   1.936       .  S
Zn602       O613   1.982       .  S
Zn602       O614   1.959       .  S
O604        C616   1.290       .  A
O605        C617   1.272       .  A
O606        C618   1.266       .  A
O607        C616   1.277       .  A
O608        C618   1.291       .  A
O609        C617   1.264       .  A
O610        C619   1.263       .  A
O611        C620   1.273       .  A
O612        C619   1.261       .  A
O613        C620   1.270       .  A
O614        C621   1.264       .  A
O615        C621   1.285       .  A
C616       C1040   1.471       .  S
C617       C1820   1.477       .  S
C618        C860   1.503       .  S
C619        C836   1.421       .  S
C620        C809   1.465       .  S
C621        C824   1.492       .  S
Zn622       O626   1.927       .  S
Zn622       O627   1.988       .  S
Zn622       O631   1.924       .  S
Zn622       O638   1.965       .  S
Zn623       O626   1.950       .  S
Zn623       O628   2.032       .  S
Zn623       O630   2.027       .  S
Zn623       O634   1.978       .  S
Zn624       O626   1.942       .  S
Zn624       O629   1.940       .  S
Zn624       O632   1.985       .  S
Zn624       O635   1.975       .  S
Zn625       O626   1.977       .  S
Zn625       O633   2.126       .  S
Zn625       O636   2.086       .  S
Zn625       O637   2.141       .  S
O627        C639   1.265       .  A
O628        C640   1.271       .  A
O629        C641   1.265       .  A
O630        C639   1.271       .  A
O631        C641   1.263       .  A
O632        C640   1.267       .  A
O633        C642   1.284       .  A
O634        C643   1.276       .  A
O635        C642   1.266       .  A
O636        C643   1.288       .  A
O637        C644   1.289       .  A
O638        C644   1.268       .  A
C639       C1568   1.468       .  S
C640        C848   1.476       .  S
C641        C833   1.438       .  S
C642        C920   1.491       .  S
C643        C932   1.470       .  S
C644        C797   1.498   1_554  S
Zn645       O649   1.933       .  S
Zn645       O650   2.006       .  S
Zn645       O654   2.067       .  S
Zn645       O661   2.047       .  S
Zn646       O649   1.950       .  S
Zn646       O651   2.087       .  S
Zn646       O653   2.068       .  S
Zn646       O657   2.075       .  S
Zn647       O649   1.944       .  S
Zn647       O652   2.071       .  S
Zn647       O655   2.037       .  S
Zn647       O658   1.971       .  S
Zn648       O649   1.931       .  S
Zn648       O656   1.942       .  S
Zn648       O659   1.976       .  S
Zn648       O660   1.960       .  S
O650        C662   1.281       .  A
O651        C663   1.286       .  A
O652        C664   1.280       .  A
O653        C662   1.287       .  A
O654        C664   1.281       .  A
O655        C663   1.279       .  A
O656        C665   1.262       .  A
O657        C666   1.276       .  A
O658        C665   1.269       .  A
O659        C666   1.262       .  A
O660        C667   1.266   1_554  A
O661        C667   1.274   1_554  A
C662       C1736   1.491       .  S
C663        C821   1.493       .  S
C664        C773   1.510       .  S
C665        C785   1.455       .  S
C666        C965   1.480       .  S
C667        C761   1.476       .  S
Zn668       O672   1.970       .  S
Zn668       O673   2.095       .  S
Zn668       O677   2.134       .  S
Zn668       O684   2.132       .  S
Zn669       O672   1.954       .  S
Zn669       O674   2.039       .  S
Zn669       O676   1.986       .  S
Zn669       O680   2.018   1_556  S
Zn670       O672   1.949       .  S
Zn670       O675   1.964       .  S
Zn670       O678   1.991       .  S
Zn670       O681   1.965       .  S
Zn671       O672   1.916       .  S
Zn671       O679   1.941       .  S
Zn671       O682   1.985   1_556  S
Zn671       O683   1.976       .  S
O673        C685   1.288       .  A
O674        C686   1.273       .  A
O675        C687   1.269       .  A
O676        C685   1.275       .  A
O677        C687   1.290       .  A
O678        C686   1.267       .  A
O679        C688   1.265       .  A
O680        C689   1.271       .  A
O681        C688   1.264       .  A
O682        C689   1.270       .  A
O683        C690   1.266       .  A
O684        C690   1.285       .  A
C685       C1556   1.475       .  S
C686       C1112   1.487       .  S
C687        C752   1.502       .  S
C688        C788   1.443       .  S
C689        C812   1.480       .  S
C690        C800   1.496       .  S
Zn691       O695   1.891       .  S
Zn691       O696   1.920       .  S
Zn691       O700   2.007       .  S
Zn691       O707   1.973       .  S
Zn692       O695   1.946       .  S
Zn692       O697   1.990       .  S
Zn692       O699   1.993       .  S
Zn692       O703   1.958       .  S
Zn693       O695   1.901       .  S
Zn693       O698   2.014       .  S
Zn693       O701   2.051       .  S
Zn693       O704   1.965       .  S
Zn694       O695   1.949       .  S
Zn694       O702   2.104       .  S
Zn694       O705   2.147       .  S
Zn694       O706   2.127       .  S
O696        C708   1.257       .  A
O697        C709   1.270       .  A
O698        C710   1.273       .  A
O699        C708   1.263       .  A
O700        C710   1.273       .  A
O701        C709   1.274       .  A
O702        C711   1.293       .  A
O703        C712   1.270       .  A
O704        C711   1.277       .  A
O705        C712   1.292       .  A
O706        C713   1.283       .  A
O707        C713   1.266       .  A
C708        C737   1.462       .  S
C709       C1760   1.483       .  S
C710        C764   1.479       .  S
C711       C1097   1.480       .  S
C712        C896   1.489       .  S
C713        C749   1.502       .  S
Zn714       O718   1.953       .  S
Zn714       O719   2.014       .  S
Zn714       O723   1.956       .  S
Zn714       O730   2.019       .  S
Zn715       O718   1.948       .  S
Zn715       O720   1.963       .  S
Zn715       O722   1.980       .  S
Zn715       O726   1.945       .  S
Zn716       O718   1.983       .  S
Zn716       O721   2.121       .  S
Zn716       O724   2.160       .  S
Zn716       O727   2.124       .  S
Zn717       O718   1.931       .  S
Zn717       O725   1.985       .  S
Zn717       O728   1.932       .  S
Zn717       O729   2.014       .  S
O719        C731   1.271       .  A
O720        C732   1.267       .  A
O721        C733   1.291       .  A
O722        C731   1.266       .  A
O723        C733   1.271       .  A
O724        C732   1.291       .  A
O725        C734   1.270       .  A
O726        C735   1.263       .  A
O727        C734   1.286       .  A
O728        C735   1.265       .  A
O729        C736   1.270       .  A
O730        C736   1.269       .  A
C731       C1616   1.477       .  S
C732        C776   1.510   1_556  S
C733        C956   1.475       .  S
C734        C869   1.497       .  S
C735        C740   1.443       .  S
C736        C884   1.472       .  S
C737        C738   1.408       .  A
C737        C742   1.413       .  A
C738        C739   1.379       .  A
C738        H747   1.084       .  S
C739        C740   1.402       .  A
C739        S743   1.807       .  S
C740        C741   1.400       .  A
C741        C742   1.389       .  A
C741        H748   1.084       .  S
C742        S744   1.799       .  S
S743        H746   1.407       .  S
S744        H745   1.407       .  S
C749        C750   1.412       .  A
C749        C754   1.412       .  A
C750        C751   1.408       .  A
C750        H759   1.084       .  S
C751        C752   1.414       .  A
C751        S755   1.800       .  S
C752        C753   1.415       .  A
C753        C754   1.410       .  A
C753        H760   1.084       .  S
C754        S756   1.798       .  S
S755        H758   1.407       .  S
S756        H757   1.406       .  S
C761        C762   1.405       .  A
C761        C766   1.412       .  A
C762        C763   1.395       .  A
C762        H771   1.084       .  S
C763        C764   1.412       .  A
C763        S767   1.800       .  S
C764        C765   1.407       .  A
C765        C766   1.400       .  A
C765        H772   1.083       .  S
C766        S768   1.802       .  S
S767        H770   1.407       .  S
S768        H769   1.407       .  S
C773        C774   1.413       .  A
C773        C778   1.415       .  A
C774        C775   1.416       .  A
C774        H783   1.084       .  S
C775        C776   1.418       .  A
C775        S779   1.799       .  S
C776        C777   1.412       .  A
C777        C778   1.409       .  A
C777        H784   1.084       .  S
C778        S780   1.802       .  S
S779        H782   1.406       .  S
S780        H781   1.407       .  S
C785        C786   1.406   1_554  A
C785        C790   1.411       .  A
C786        C787   1.385       .  A
C786        H795   1.084   1_556  S
C787        C788   1.403       .  A
C787        S791   1.804       .  S
C788        C789   1.400       .  A
C789        C790   1.389   1_556  A
C789        H796   1.083       .  S
C790        S792   1.804       .  S
S791        H794   1.407       .  S
S792        H793   1.408       .  S
C797        C798   1.403       .  A
C797        C802   1.423       .  A
C798        C799   1.410       .  A
C798        H807   1.084       .  S
C799        C800   1.421       .  A
C799        S803   1.803       .  S
C800        C801   1.402       .  A
C801        C802   1.409       .  A
C801        H808   1.084       .  S
C802        S804   1.805       .  S
S803        H806   1.407       .  S
S804        H805   1.407       .  S
C809        C810   1.403       .  A
C809        C814   1.407       .  A
C810        C811   1.402       .  A
C810        H819   1.084       .  S
C811        C812   1.416       .  A
C811        S815   1.802       .  S
C812        C813   1.407       .  A
C813        C814   1.392       .  A
C813        H820   1.084       .  S
C814        S816   1.806       .  S
S815        H818   1.407       .  S
S816        H817   1.407       .  S
C821        C822   1.406       .  A
C821        C826   1.417       .  A
C822        C823   1.415       .  A
C822        H831   1.083       .  S
C823        C824   1.418       .  A
C823        S827   1.801       .  S
C824        C825   1.404       .  A
C825        C826   1.404       .  A
C825        H832   1.085       .  S
C826        S828   1.806       .  S
S827        H830   1.406       .  S
S828        H829   1.403       .  S
C833        C834   1.404       .  A
C833        C838   1.407       .  A
C834        C835   1.383       .  A
C834        H843   1.084       .  S
C835        C836   1.399       .  A
C835        S839   1.805       .  S
C836        C837   1.397       .  A
C837        C838   1.381       .  A
C837        H844   1.085       .  S
C838        S840   1.806       .  S
S839        H842   1.406       .  S
S840        H841   1.407       .  S
C845        C846   1.403       .  A
C845        C850   1.410       .  A
C846        C847   1.397       .  A
C846        H855   1.084       .  S
C847        C848   1.410       .  A
C847        S851   1.804       .  S
C848        C849   1.407       .  A
C849        C850   1.403       .  A
C849        H856   1.082       .  S
C850        S852   1.803       .  S
S851        H854   1.407       .  S
S852        H853   1.403       .  S
C857        C858   1.411       .  A
C857        C862   1.408       .  A
C858        C859   1.412       .  A
C858        H867   1.084       .  S
C859        C860   1.413       .  A
C859        S863   1.798       .  S
C860        C861   1.415       .  A
C861        C862   1.404       .  A
C861        H868   1.084       .  S
C862        S864   1.804       .  S
S863        H866   1.407       .  S
S864        H865   1.404       .  S
C869        C870   1.409       .  A
C869        C874   1.413       .  A
C870        C871   1.406       .  A
C870        H879   1.084       .  S
C871        C872   1.415       .  A
C871        S875   1.800       .  S
C872        C873   1.414       .  A
C873        C874   1.411       .  A
C873        H880   1.084       .  S
C874        S876   1.802       .  S
S875        H878   1.407       .  S
S876        H877   1.405       .  S
C881        C882   1.404       .  A
C881        C886   1.424       .  A
C882        C883   1.400       .  A
C882        H891   1.084       .  S
C883        C884   1.412       .  A
C883        S887   1.805       .  S
C884        C885   1.397       .  A
C885        C886   1.402       .  A
C885        H892   1.084       .  S
C886        S888   1.801       .  S
S887        H890   1.406       .  S
S888        H889   1.407       .  S
C893        C894   1.399       .  A
C893        C898   1.419       .  A
C894        C895   1.393       .  A
C894        H903   1.081       .  S
C895        C896   1.413       .  A
C895        S899   1.803       .  S
C896        C897   1.410       .  A
C897        C898   1.421       .  A
C897        H904   1.083       .  S
C898        S900   1.803       .  S
S899        H902   1.407       .  S
S900        H901   1.403       .  S
C905        C906   1.400       .  A
C905        C910   1.407       .  A
C906        C907   1.384       .  A
C906        H915   1.085       .  S
C907        C908   1.408       .  A
C907        S911   1.802       .  S
C908        C909   1.403       .  A
C909        C910   1.381       .  A
C909        H916   1.085       .  S
C910        S912   1.805       .  S
S911        H914   1.398       .  S
S912        H913   1.408       .  S
C917        C918   1.408       .  A
C917        C922   1.416       .  A
C918        C919   1.410       .  A
C918        H927   1.084       .  S
C919        C920   1.415       .  A
C919        S923   1.803       .  S
C920        C921   1.407       .  A
C921        C922   1.408       .  A
C921        H928   1.084       .  S
C922        S924   1.803       .  S
S923        H926   1.406       .  S
S924        H925   1.407       .  S
C929        C930   1.406       .  A
C929        C934   1.419       .  A
C930        C931   1.399       .  A
C930        H939   1.084       .  S
C931        C932   1.410       .  A
C931        S935   1.804       .  S
C932        C933   1.401       .  A
C933        C934   1.402       .  A
C933        H940   1.084       .  S
C934        S936   1.803       .  S
S935        H938   1.407       .  S
S936        H937   1.408       .  S
C941        C942   1.406       .  A
C941        C946   1.408       .  A
C942        C943   1.374   1_556  A
C942        H951   1.083       .  S
C943        C944   1.404       .  A
C943        S947   1.811       .  S
C944        C945   1.399       .  A
C945        C946   1.381   1_554  A
C945        H952   1.077       .  S
C946        S948   1.803       .  S
S947        H950   1.400       .  S
S948        H949   1.408       .  S
C953        C954   1.401       .  A
C953        C958   1.417       .  A
C954        C955   1.403       .  A
C954        H963   1.082       .  S
C955        C956   1.416       .  A
C955        S959   1.804       .  S
C956        C957   1.401       .  A
C957        C958   1.404       .  A
C957        H964   1.084       .  S
C958        S960   1.805       .  S
S959        H962   1.406       .  S
S960        H961   1.406       .  S
C965        C966   1.399       .  A
C965        C970   1.415       .  A
C966        C967   1.400       .  A
C966        H975   1.084       .  S
C967        C968   1.422       .  A
C967        S971   1.805       .  S
C968        C969   1.408       .  A
C969        C970   1.407       .  A
C969        H976   1.083       .  S
C970        S972   1.804       .  S
S971        H974   1.408       .  S
S972        H973   1.404       .  S
C977        C978   1.411       .  A
C977        C982   1.427       .  A
C978        C979   1.408   1_556  A
C978        H987   1.083       .  S
C979        C980   1.418       .  A
C979        S983   1.804       .  S
C980        C981   1.406   1_554  A
C981        C982   1.416       .  A
C981        H988   1.084       .  S
C982        S984   1.798       .  S
S983        H986   1.406       .  S
S984        H985   1.407       .  S
C989        C990   1.404       .  A
C989        C994   1.415       .  A
C990        C991   1.398       .  A
C990        H999   1.084       .  S
C991        C992   1.411       .  A
C991        S995   1.805       .  S
C992        C993   1.402       .  A
C993        C994   1.401       .  A
C993       H1000   1.084       .  S
C994        S996   1.803       .  S
S995        H998   1.407       .  S
S996        H997   1.407       .  S
C1001      C1002   1.401       .  A
C1001      C1006   1.421       .  A
C1002      C1003   1.392       .  A
C1002      H1011   1.084       .  S
C1003      C1004   1.413       .  A
C1003      S1007   1.806       .  S
C1004      C1005   1.399       .  A
C1005      C1006   1.405       .  A
C1005      H1012   1.084       .  S
C1006      S1008   1.803       .  S
S1007      H1010   1.407       .  S
S1008      H1009   1.407       .  S
C1013      C1014   1.412       .  A
C1013      C1018   1.415       .  A
C1014      C1015   1.405       .  A
C1014      H1023   1.084       .  S
C1015      C1016   1.412       .  A
C1015      S1019   1.803       .  S
C1016      C1017   1.411       .  A
C1017      C1018   1.411       .  A
C1017      H1024   1.084       .  S
C1018      S1020   1.800       .  S
S1019      H1022   1.407       .  S
S1020      H1021   1.405       .  S
C1025      C1026   1.405       .  A
C1025      C1030   1.418       .  A
C1026      C1027   1.388   1_545  A
C1026      H1035   1.083       .  S
C1027      C1028   1.406       .  A
C1027      S1031   1.805       .  S
C1028      C1029   1.393       .  A
C1029      C1030   1.382   1_565  A
C1029      H1036   1.085       .  S
C1030      S1032   1.802       .  S
S1031      H1034   1.405       .  S
S1032      H1033   1.401       .  S
C1037      C1038   1.402       .  A
C1037      C1042   1.419       .  A
C1038      C1039   1.397       .  A
C1038      H1047   1.084       .  S
C1039      C1040   1.414       .  A
C1039      S1043   1.805       .  S
C1040      C1041   1.400       .  A
C1041      C1042   1.400       .  A
C1041      H1048   1.084       .  S
C1042      S1044   1.804       .  S
S1043      H1046   1.407       .  S
S1044      H1045   1.408       .  S
C1049      C1050   1.409       .  A
C1049      C1054   1.414       .  A
C1050      C1051   1.411       .  A
C1050      H1059   1.082       .  S
C1051      C1052   1.417       .  A
C1051      S1055   1.809       .  S
C1052      C1053   1.411       .  A
C1053      C1054   1.407       .  A
C1053      H1060   1.083       .  S
C1054      S1056   1.803       .  S
S1055      H1058   1.406       .  S
S1056      H1057   1.407       .  S
C1061      C1062   1.404       .  A
C1061      C1066   1.408       .  A
C1062      C1063   1.407       .  A
C1062      H1071   1.084       .  S
C1063      C1064   1.415       .  A
C1063      S1067   1.802       .  S
C1064      C1065   1.404       .  A
C1065      C1066   1.397       .  A
C1065      H1072   1.082       .  S
C1066      S1068   1.808       .  S
S1067      H1070   1.407       .  S
S1068      H1069   1.407       .  S
C1073      C1074   1.412   1_565  A
C1073      C1078   1.421   1_565  A
C1074      C1075   1.417       .  A
C1074      H1083   1.083       .  S
C1075      C1076   1.416       .  A
C1075      S1079   1.802       .  S
C1076      C1077   1.399       .  A
C1077      C1078   1.394       .  A
C1077      H1084   1.085       .  S
C1078      S1080   1.805   1_545  S
S1079      H1082   1.403       .  S
S1080      H1081   1.408       .  S
C1085      C1086   1.402       .  A
C1085      C1090   1.418       .  A
C1086      C1087   1.389       .  A
C1086      H1095   1.084       .  S
C1087      C1088   1.407       .  A
C1087      S1091   1.801       .  S
C1088      C1089   1.395       .  A
C1089      C1090   1.383       .  A
C1089      H1096   1.085       .  S
C1090      S1092   1.807       .  S
S1091      H1094   1.406       .  S
S1092      H1093   1.408       .  S
C1097      C1098   1.407       .  A
C1097      C1102   1.413       .  A
C1098      C1099   1.394       .  A
C1098      H1107   1.084       .  S
C1099      C1100   1.410       .  A
C1099      S1103   1.805       .  S
C1100      C1101   1.408       .  A
C1101      C1102   1.405       .  A
C1101      H1108   1.084       .  S
C1102      S1104   1.801       .  S
S1103      H1106   1.407       .  S
S1104      H1105   1.406       .  S
C1109      C1110   1.399       .  A
C1109      C1114   1.417       .  A
C1110      C1111   1.402       .  A
C1110      H1119   1.084       .  S
C1111      C1112   1.422       .  A
C1111      S1115   1.803       .  S
C1112      C1113   1.402       .  A
C1113      C1114   1.400       .  A
C1113      H1120   1.084       .  S
C1114      S1116   1.804       .  S
S1115      H1118   1.407       .  S
S1116      H1117   1.407       .  S
C1121      C1122   1.404       .  A
C1121      C1126   1.407       .  A
C1122      C1123   1.402       .  A
C1122      H1131   1.084       .  S
C1123      C1124   1.416       .  A
C1123      S1127   1.802       .  S
C1124      C1125   1.408       .  A
C1125      C1126   1.394       .  A
C1125      H1132   1.084       .  S
C1126      S1128   1.805       .  S
S1127      H1130   1.407       .  S
S1128      H1129   1.407       .  S
C1133      C1134   1.406       .  A
C1133      C1138   1.417       .  A
C1134      C1135   1.413       .  A
C1134      H1143   1.084       .  S
C1135      C1136   1.422       .  A
C1135      S1139   1.802       .  S
C1136      C1137   1.405       .  A
C1137      C1138   1.404       .  A
C1137      H1144   1.084       .  S
C1138      S1140   1.805       .  S
S1139      H1142   1.407       .  S
S1140      H1141   1.407       .  S
C1145      C1146   1.403       .  A
C1145      C1150   1.424       .  A
C1146      C1147   1.412       .  A
C1146      H1155   1.084       .  S
C1147      C1148   1.421       .  A
C1147      S1151   1.801       .  S
C1148      C1149   1.401       .  A
C1149      C1150   1.410       .  A
C1149      H1156   1.084       .  S
C1150      S1152   1.804       .  S
S1151      H1154   1.406   1_565  S
S1152      H1153   1.407       .  S
C1157      C1158   1.411       .  A
C1157      C1162   1.415       .  A
C1158      C1159   1.401       .  A
C1158      H1167   1.084       .  S
C1159      C1160   1.408       .  A
C1159      S1163   1.800       .  S
C1160      C1161   1.406       .  A
C1161      C1162   1.395       .  A
C1161      H1168   1.085       .  S
C1162      S1164   1.803       .  S
S1163      H1166   1.406       .  S
S1164      H1165   1.408       .  S
C1169      C1170   1.398       .  A
C1169      C1174   1.412       .  A
C1170      C1171   1.404       .  A
C1170      H1179   1.084       .  S
C1171      C1172   1.421       .  A
C1171      S1175   1.804       .  S
C1172      C1173   1.397       .  A
C1173      C1174   1.392       .  A
C1173      H1180   1.084       .  S
C1174      S1176   1.797       .  S
S1175      H1178   1.405       .  S
S1176      H1177   1.405   1_556  S
C1181      C1182   1.404       .  A
C1181      C1186   1.414       .  A
C1182      C1183   1.411       .  A
C1182      H1191   1.084       .  S
C1183      C1184   1.422       .  A
C1183      S1187   1.801       .  S
C1184      C1185   1.408       .  A
C1185      C1186   1.407       .  A
C1185      H1192   1.084       .  S
C1186      S1188   1.803       .  S
S1187      H1190   1.408       .  S
S1188      H1189   1.406       .  S
C1193      C1194   1.398   1_545  A
C1193      C1198   1.412       .  A
C1194      C1195   1.385       .  A
C1194      H1203   1.084       .  S
C1195      C1196   1.407       .  A
C1195      S1199   1.807       .  S
C1196      C1197   1.393       .  A
C1197      C1198   1.386   1_565  A
C1197      H1204   1.084       .  S
C1198      S1200   1.803       .  S
S1199      H1202   1.407       .  S
S1200      H1201   1.403       .  S
C1205      C1206   1.408       .  A
C1205      C1210   1.413       .  A
C1206      C1207   1.415       .  A
C1206      H1215   1.083       .  S
C1207      C1208   1.417   1_545  A
C1207      S1211   1.800       .  S
C1208      C1209   1.403       .  A
C1209      C1210   1.395   1_565  A
C1209      H1216   1.084       .  S
C1210      S1212   1.807       .  S
S1211      H1214   1.405       .  S
S1212      H1213   1.406       .  S
C1217      C1218   1.403       .  A
C1217      C1222   1.404       .  A
C1218      C1219   1.401   1_655  A
C1218      H1227   1.077       .  S
C1219      C1220   1.412       .  A
C1219      S1223   1.801       .  S
C1220      C1221   1.411   1_455  A
C1221      C1222   1.394       .  A
C1221      H1228   1.083   1_655  S
C1222      S1224   1.805       .  S
S1223      H1226   1.407       .  S
S1224      H1225   1.404       .  S
C1229      C1230   1.394       .  A
C1229      C1234   1.409       .  A
C1230      C1231   1.380   1_565  A
C1230      H1239   1.079       .  S
C1231      C1232   1.407       .  A
C1231      S1235   1.809       .  S
C1232      C1233   1.396   1_545  A
C1233      C1234   1.390       .  A
C1233      H1240   1.083       .  S
C1234      S1236   1.806       .  S
S1235      H1238   1.404       .  S
S1236      H1237   1.406       .  S
C1241      C1242   1.399       .  A
C1241      C1246   1.417       .  A
C1242      C1243   1.394       .  A
C1242      H1251   1.084       .  S
C1243      C1244   1.419   1_655  A
C1243      S1247   1.806   1_655  S
C1244      C1245   1.400   1_455  A
C1245      C1246   1.400       .  A
C1245      H1252   1.083   1_655  S
C1246      S1248   1.801       .  S
S1247      H1250   1.408       .  S
S1248      H1249   1.407       .  S
C1253      C1254   1.405       .  A
C1253      C1258   1.410       .  A
C1254      C1255   1.401       .  A
C1254      H1263   1.084       .  S
C1255      C1256   1.413       .  A
C1255      S1259   1.801       .  S
C1256      C1257   1.405       .  A
C1257      C1258   1.391       .  A
C1257      H1264   1.084       .  S
C1258      S1260   1.806       .  S
S1259      H1262   1.405       .  S
S1260      H1261   1.407       .  S
C1265      C1266   1.407       .  A
C1265      C1270   1.417       .  A
C1266      C1267   1.407       .  A
C1266      H1275   1.084       .  S
C1267      C1268   1.413       .  A
C1267      S1271   1.802       .  S
C1268      C1269   1.406       .  A
C1269      C1270   1.408       .  A
C1269      H1276   1.084       .  S
C1270      S1272   1.803       .  S
S1271      H1274   1.407       .  S
S1272      H1273   1.407       .  S
C1277      C1278   1.407       .  A
C1277      C1282   1.408       .  A
C1278      C1279   1.392   1_655  A
C1278      H1287   1.084       .  S
C1279      C1280   1.408       .  A
C1279      S1283   1.800       .  S
C1280      C1281   1.410       .  A
C1281      C1282   1.404   1_455  A
C1281      H1288   1.083       .  S
C1282      S1284   1.799       .  S
S1283      H1286   1.407       .  S
S1284      H1285   1.405       .  S
C1289      C1290   1.397       .  A
C1289      C1294   1.411       .  A
C1290      C1291   1.400       .  A
C1290      H1299   1.084       .  S
C1291      C1292   1.418       .  A
C1291      S1295   1.797       .  S
C1292      C1293   1.402       .  A
C1293      C1294   1.396       .  A
C1293      H1300   1.084       .  S
C1294      S1296   1.805       .  S
S1295      H1298   1.407       .  S
S1296      H1297   1.406   1_556  S
C1301      C1302   1.406       .  A
C1301      C1306   1.413       .  A
C1302      C1303   1.405       .  A
C1302      H1311   1.084   1_554  S
C1303      C1304   1.414   1_545  A
C1303      S1307   1.804   1_545  S
C1304      C1305   1.407   1_565  A
C1305      C1306   1.409       .  A
C1305      H1312   1.084   1_545  S
C1306      S1308   1.799       .  S
S1307      H1310   1.406       .  S
S1308      H1309   1.407       .  S
C1313      C1314   1.403       .  A
C1313      C1318   1.409       .  A
C1314      C1315   1.389       .  A
C1314      H1323   1.084       .  S
C1315      C1316   1.406       .  A
C1315      S1319   1.804       .  S
C1316      C1317   1.401       .  A
C1317      C1318   1.377       .  A
C1317      H1324   1.085       .  S
C1318      S1320   1.807       .  S
S1319      H1322   1.408       .  S
S1320      H1321   1.408       .  S
C1325      C1326   1.404       .  A
C1325      C1330   1.411       .  A
C1326      C1327   1.401       .  A
C1326      H1335   1.084       .  S
C1327      C1328   1.417       .  A
C1327      S1331   1.799       .  S
C1328      C1329   1.408       .  A
C1329      C1330   1.394       .  A
C1329      H1336   1.084       .  S
C1330      S1332   1.805       .  S
S1331      H1334   1.407       .  S
S1332      H1333   1.407       .  S
C1337      C1338   1.405       .  A
C1337      C1342   1.418       .  A
C1338      C1339   1.409       .  A
C1338      H1347   1.084       .  S
C1339      C1340   1.421       .  A
C1339      S1343   1.800       .  S
C1340      C1341   1.406       .  A
C1341      C1342   1.403       .  A
C1341      H1348   1.084       .  S
C1342      S1344   1.802       .  S
S1343      H1346   1.407       .  S
S1344      H1345   1.406       .  S
C1349      C1350   1.417       .  A
C1349      C1354   1.418       .  A
C1350      C1351   1.400   1_655  A
C1350      H1359   1.083       .  S
C1351      C1352   1.405       .  A
C1351      S1355   1.805       .  S
C1352      C1353   1.406       .  A
C1353      C1354   1.404   1_455  A
C1353      H1360   1.084       .  S
C1354      S1356   1.800       .  S
S1355      H1358   1.406       .  S
S1356      H1357   1.407       .  S
C1361      C1362   1.399       .  A
C1361      C1366   1.417       .  A
C1362      C1363   1.397       .  A
C1362      H1371   1.082       .  S
C1363      C1364   1.425       .  A
C1363      S1367   1.813       .  S
C1364      C1365   1.405       .  A
C1365      C1366   1.401       .  A
C1365      H1372   1.083       .  S
C1366      S1368   1.801       .  S
S1367      H1370   1.406       .  S
S1368      H1369   1.405       .  S
C1373      C1374   1.403       .  A
C1373      C1378   1.425       .  A
C1374      C1375   1.390       .  A
C1374      H1383   1.084   1_565  S
C1375      C1376   1.421       .  A
C1375      S1379   1.807       .  S
C1376      C1377   1.411       .  A
C1377      C1378   1.424       .  A
C1377      H1384   1.083       .  S
C1378      S1380   1.799       .  S
S1379      H1382   1.408       .  S
S1380      H1381   1.407       .  S
C1385      C1386   1.405       .  A
C1385      C1390   1.417       .  A
C1386      C1387   1.389       .  A
C1386      H1395   1.084       .  S
C1387      C1388   1.408       .  A
C1387      S1391   1.802       .  S
C1388      C1389   1.399       .  A
C1389      C1390   1.381       .  A
C1389      H1396   1.085       .  S
C1390      S1392   1.805       .  S
S1391      H1394   1.408       .  S
S1392      H1393   1.408       .  S
C1397      C1398   1.411       .  A
C1397      C1402   1.414       .  A
C1398      C1399   1.404       .  A
C1398      H1407   1.084       .  S
C1399      C1400   1.408       .  A
C1399      S1403   1.804       .  S
C1400      C1401   1.404       .  A
C1401      C1402   1.398       .  A
C1401      H1408   1.079       .  S
C1402      S1404   1.807       .  S
S1403      H1406   1.404       .  S
S1404      H1405   1.398       .  S
C1409      C1410   1.402       .  A
C1409      C1414   1.421       .  A
C1410      C1411   1.407       .  A
C1410      H1419   1.083       .  S
C1411      C1412   1.421       .  A
C1411      S1415   1.803       .  S
C1412      C1413   1.405       .  A
C1413      C1414   1.411       .  A
C1413      H1420   1.084       .  S
C1414      S1416   1.804       .  S
S1415      H1418   1.407       .  S
S1416      H1417   1.407       .  S
C1421      C1422   1.408       .  A
C1421      C1426   1.411       .  A
C1422      C1423   1.401       .  A
C1422      H1431   1.084       .  S
C1423      C1424   1.413       .  A
C1423      S1427   1.802       .  S
C1424      C1425   1.409       .  A
C1425      C1426   1.400       .  A
C1425      H1432   1.084       .  S
C1426      S1428   1.802       .  S
S1427      H1430   1.407       .  S
S1428      H1429   1.406       .  S
C1433      C1434   1.407       .  A
C1433      C1438   1.415       .  A
C1434      C1435   1.409       .  A
C1434      H1443   1.083       .  S
C1435      C1436   1.417       .  A
C1435      S1439   1.802       .  S
C1436      C1437   1.409       .  A
C1437      C1438   1.405       .  A
C1437      H1444   1.083       .  S
C1438      S1440   1.804       .  S
S1439      H1442   1.407       .  S
S1440      H1441   1.407       .  S
C1445      C1446   1.414       .  A
C1445      C1450   1.415       .  A
C1446      C1447   1.398       .  A
C1446      H1455   1.083       .  S
C1447      C1448   1.410       .  A
C1447      S1451   1.803       .  S
C1448      C1449   1.410       .  A
C1449      C1450   1.402       .  A
C1449      H1456   1.083       .  S
C1450      S1452   1.801       .  S
S1451      H1454   1.408       .  S
S1452      H1453   1.408       .  S
C1457      C1458   1.406       .  A
C1457      C1462   1.421       .  A
C1458      C1459   1.406       .  A
C1458      H1467   1.084       .  S
C1459      C1460   1.421       .  A
C1459      S1463   1.802       .  S
C1460      C1461   1.405       .  A
C1461      C1462   1.407       .  A
C1461      H1468   1.084       .  S
C1462      S1464   1.801       .  S
S1463      H1466   1.405       .  S
S1464      H1465   1.408       .  S
C1469      C1470   1.391   1_545  A
C1469      C1474   1.410       .  A
C1470      C1471   1.376       .  A
C1470      H1479   1.085       .  S
C1471      C1472   1.408       .  A
C1471      S1475   1.804       .  S
C1472      C1473   1.394       .  A
C1473      C1474   1.385   1_565  A
C1473      H1480   1.084       .  S
C1474      S1476   1.806       .  S
S1475      H1478   1.404       .  S
S1476      H1477   1.407       .  S
C1481      C1482   1.410       .  A
C1481      C1486   1.411       .  A
C1482      C1483   1.405       .  A
C1482      H1491   1.084       .  S
C1483      C1484   1.411       .  A
C1483      S1487   1.801       .  S
C1484      C1485   1.407       .  A
C1485      C1486   1.395       .  A
C1485      H1492   1.084       .  S
C1486      S1488   1.803       .  S
S1487      H1490   1.407       .  S
S1488      H1489   1.407       .  S
C1493      C1494   1.407       .  A
C1493      C1498   1.417       .  A
C1494      C1495   1.410       .  A
C1494      H1503   1.084       .  S
C1495      C1496   1.419       .  A
C1495      S1499   1.802       .  S
C1496      C1497   1.408       .  A
C1497      C1498   1.405       .  A
C1497      H1504   1.084       .  S
C1498      S1500   1.804       .  S
S1499      H1502   1.407   1_545  S
S1500      H1501   1.407       .  S
C1505      C1506   1.397       .  A
C1505      C1510   1.414       .  A
C1506      C1507   1.397       .  A
C1506      H1515   1.084       .  S
C1507      C1508   1.421       .  A
C1507      S1511   1.805       .  S
C1508      C1509   1.403       .  A
C1509      C1510   1.401       .  A
C1509      H1516   1.084       .  S
C1510      S1512   1.804       .  S
S1511      H1514   1.408       .  S
S1512      H1513   1.403       .  S
C1517      C1518   1.400       .  A
C1517      C1522   1.417       .  A
C1518      C1519   1.396       .  A
C1518      H1527   1.084       .  S
C1519      C1520   1.416       .  A
C1519      S1523   1.806       .  S
C1520      C1521   1.402       .  A
C1521      C1522   1.404       .  A
C1521      H1528   1.084       .  S
C1522      S1524   1.804       .  S
S1523      H1526   1.407       .  S
S1524      H1525   1.407       .  S
C1529      C1530   1.410       .  A
C1529      C1534   1.409       .  A
C1530      C1531   1.395       .  A
C1530      H1539   1.084       .  S
C1531      C1532   1.409       .  A
C1531      S1535   1.799       .  S
C1532      C1533   1.413       .  A
C1533      C1534   1.401       .  A
C1533      H1540   1.083       .  S
C1534      S1536   1.801       .  S
S1535      H1538   1.408       .  S
S1536      H1537   1.407       .  S
C1541      C1542   1.395       .  A
C1541      C1546   1.410       .  A
C1542      C1543   1.381       .  A
C1542      H1551   1.084       .  S
C1543      C1544   1.408       .  A
C1543      S1547   1.808       .  S
C1544      C1545   1.394       .  A
C1545      C1546   1.380       .  A
C1545      H1552   1.084       .  S
C1546      S1548   1.808       .  S
S1547      H1550   1.405       .  S
S1548      H1549   1.407       .  S
C1553      C1554   1.408       .  A
C1553      C1558   1.417       .  A
C1554      C1555   1.403       .  A
C1554      H1563   1.084       .  S
C1555      C1556   1.410       .  A
C1555      S1559   1.803       .  S
C1556      C1557   1.403       .  A
C1557      C1558   1.402       .  A
C1557      H1564   1.084       .  S
C1558      S1560   1.802       .  S
S1559      H1562   1.406       .  S
S1560      H1561   1.406       .  S
C1565      C1566   1.401       .  A
C1565      C1570   1.420       .  A
C1566      C1567   1.405       .  A
C1566      H1575   1.083       .  S
C1567      C1568   1.417       .  A
C1567      S1571   1.805       .  S
C1568      C1569   1.395       .  A
C1569      C1570   1.394       .  A
C1569      H1576   1.084       .  S
C1570      S1572   1.807       .  S
S1571      H1574   1.402       .  S
S1572      H1573   1.407       .  S
C1577      C1578   1.402       .  A
C1577      C1582   1.421       .  A
C1578      C1579   1.396       .  A
C1578      H1587   1.084       .  S
C1579      C1580   1.414       .  A
C1579      S1583   1.805       .  S
C1580      C1581   1.400       .  A
C1581      C1582   1.405       .  A
C1581      H1588   1.084       .  S
C1582      S1584   1.803       .  S
S1583      H1586   1.406       .  S
S1584      H1585   1.407       .  S
C1589      C1590   1.403       .  A
C1589      C1594   1.419       .  A
C1590      C1591   1.409       .  A
C1590      H1599   1.084       .  S
C1591      C1592   1.420       .  A
C1591      S1595   1.805       .  S
C1592      C1593   1.403       .  A
C1593      C1594   1.410       .  A
C1593      H1600   1.084       .  S
C1594      S1596   1.801       .  S
S1595      H1598   1.407       .  S
S1596      H1597   1.407       .  S
C1601      C1602   1.406       .  A
C1601      C1606   1.414       .  A
C1602      C1603   1.394       .  A
C1602      H1611   1.084       .  S
C1603      C1604   1.416       .  A
C1603      S1607   1.804       .  S
C1604      C1605   1.408       .  A
C1605      C1606   1.400       .  A
C1605      H1612   1.083       .  S
C1606      S1608   1.801       .  S
S1607      H1610   1.408       .  S
S1608      H1609   1.407       .  S
C1613      C1614   1.399       .  A
C1613      C1618   1.415       .  A
C1614      C1615   1.399   1_655  A
C1614      H1623   1.084       .  S
C1615      C1616   1.419       .  A
C1615      S1619   1.804       .  S
C1616      C1617   1.400       .  A
C1617      C1618   1.398   1_455  A
C1617      H1624   1.083       .  S
C1618      S1620   1.809       .  S
S1619      H1622   1.407       .  S
S1620      H1621   1.407       .  S
C1625      C1626   1.402       .  A
C1625      C1630   1.407       .  A
C1626      C1627   1.382   1_556  A
C1626      H1635   1.084       .  S
C1627      C1628   1.410       .  A
C1627      S1631   1.804       .  S
C1628      C1629   1.403       .  A
C1629      C1630   1.381   1_554  A
C1629      H1636   1.084       .  S
C1630      S1632   1.806       .  S
S1631      H1634   1.407       .  S
S1632      H1633   1.408       .  S
C1637      C1638   1.410       .  A
C1637      C1642   1.417       .  A
C1638      C1639   1.393       .  A
C1638      H1647   1.083       .  S
C1639      C1640   1.408       .  A
C1639      S1643   1.805       .  S
C1640      C1641   1.405       .  A
C1641      C1642   1.401       .  A
C1641      H1648   1.084       .  S
C1642      S1644   1.800       .  S
S1643      H1646   1.407       .  S
S1644      H1645   1.406       .  S
C1649      C1650   1.403       .  A
C1649      C1654   1.420       .  A
C1650      C1651   1.410       .  A
C1650      H1659   1.084       .  S
C1651      C1652   1.422       .  A
C1651      S1655   1.802       .  S
C1652      C1653   1.401       .  A
C1653      C1654   1.405       .  A
C1653      H1660   1.084       .  S
C1654      S1656   1.804       .  S
S1655      H1658   1.404       .  S
S1656      H1657   1.407       .  S
C1661      C1662   1.402       .  A
C1661      C1666   1.415       .  A
C1662      C1663   1.405       .  A
C1662      H1671   1.083       .  S
C1663      C1664   1.417       .  A
C1663      S1667   1.804       .  S
C1664      C1665   1.398       .  A
C1665      C1666   1.396       .  A
C1665      H1672   1.082       .  S
C1666      S1668   1.806       .  S
S1667      H1670   1.406       .  S
S1668      H1669   1.407       .  S
C1673      C1674   1.408       .  A
C1673      C1678   1.413       .  A
C1674      C1675   1.407       .  A
C1674      H1683   1.083       .  S
C1675      C1676   1.413       .  A
C1675      S1679   1.801       .  S
C1676      C1677   1.403       .  A
C1677      C1678   1.389       .  A
C1677      H1684   1.085       .  S
C1678      S1680   1.807       .  S
S1679      H1682   1.407       .  S
S1680      H1681   1.408       .  S
C1685      C1686   1.412       .  A
C1685      C1690   1.415       .  A
C1686      C1687   1.412       .  A
C1686      H1695   1.084       .  S
C1687      C1688   1.414       .  A
C1687      S1691   1.801       .  S
C1688      C1689   1.412       .  A
C1689      C1690   1.410       .  A
C1689      H1696   1.084       .  S
C1690      S1692   1.803       .  S
S1691      H1694   1.407       .  S
S1692      H1693   1.406       .  S
C1697      C1698   1.397       .  A
C1697      C1702   1.414       .  A
C1698      C1699   1.395       .  A
C1698      H1707   1.084       .  S
C1699      C1700   1.419   1_655  A
C1699      S1703   1.805   1_655  S
C1700      C1701   1.404   1_455  A
C1701      C1702   1.404       .  A
C1701      H1708   1.083   1_655  S
C1702      S1704   1.804       .  S
S1703      H1706   1.407       .  S
S1704      H1705   1.404       .  S
C1709      C1710   1.402       .  A
C1709      C1714   1.409       .  A
C1710      C1711   1.399       .  A
C1710      H1719   1.084       .  S
C1711      C1712   1.420       .  A
C1711      S1715   1.801       .  S
C1712      C1713   1.410       .  A
C1713      C1714   1.396       .  A
C1713      H1720   1.083       .  S
C1714      S1716   1.805       .  S
S1715      H1718   1.408       .  S
S1716      H1717   1.407       .  S
C1721      C1722   1.389       .  A
C1721      C1726   1.408       .  A
C1722      C1723   1.382       .  A
C1722      H1731   1.085       .  S
C1723      C1724   1.415       .  A
C1723      S1727   1.809       .  S
C1724      C1725   1.394       .  A
C1725      C1726   1.382       .  A
C1725      H1732   1.084       .  S
C1726      S1728   1.806       .  S
S1727      H1730   1.397       .  S
S1728      H1729   1.407       .  S
C1733      C1734   1.402       .  A
C1733      C1738   1.410       .  A
C1734      C1735   1.405   1_655  A
C1734      H1743   1.084       .  S
C1735      C1736   1.421       .  A
C1735      S1739   1.801       .  S
C1736      C1737   1.407   1_455  A
C1737      C1738   1.397       .  A
C1737      H1744   1.084   1_655  S
C1738      S1740   1.804       .  S
S1739      H1742   1.406       .  S
S1740      H1741   1.404       .  S
C1745      C1746   1.409       .  A
C1745      C1750   1.414       .  A
C1746      C1747   1.411       .  A
C1746      H1755   1.084       .  S
C1747      C1748   1.413       .  A
C1747      S1751   1.802       .  S
C1748      C1749   1.406       .  A
C1749      C1750   1.406       .  A
C1749      H1756   1.083   1_556  S
C1750      S1752   1.804       .  S
S1751      H1754   1.406       .  S
S1752      H1753   1.406       .  S
C1757      C1758   1.405       .  A
C1757      C1762   1.419       .  A
C1758      C1759   1.407       .  A
C1758      H1767   1.083       .  S
C1759      C1760   1.418   1_655  A
C1759      S1763   1.802   1_655  S
C1760      C1761   1.399   1_455  A
C1761      C1762   1.397       .  A
C1761      H1768   1.084   1_655  S
C1762      S1764   1.802       .  S
S1763      H1766   1.405       .  S
S1764      H1765   1.408       .  S
C1769      C1770   1.405       .  A
C1769      C1774   1.413       .  A
C1770      C1771   1.399       .  A
C1770      H1779   1.084       .  S
C1771      C1772   1.416       .  A
C1771      S1775   1.800       .  S
C1772      C1773   1.411       .  A
C1773      C1774   1.403       .  A
C1773      H1780   1.084       .  S
C1774      S1776   1.804       .  S
S1775      H1778   1.408       .  S
S1776      H1777   1.405       .  S
C1781      C1782   1.408       .  A
C1781      C1786   1.432       .  A
C1782      C1783   1.419       .  A
C1782      H1791   1.083       .  S
C1783      C1784   1.426       .  A
C1783      S1787   1.797       .  S
C1784      C1785   1.403       .  A
C1785      C1786   1.404       .  A
C1785      H1792   1.082       .  S
C1786      S1788   1.816       .  S
S1787      H1790   1.407       .  S
S1788      H1789   1.406       .  S
C1793      C1794   1.399       .  A
C1793      C1798   1.415       .  A
C1794      C1795   1.397       .  A
C1794      H1803   1.084       .  S
C1795      C1796   1.413       .  A
C1795      S1799   1.805       .  S
C1796      C1797   1.402       .  A
C1797      C1798   1.403       .  A
C1797      H1804   1.084       .  S
C1798      S1800   1.804       .  S
S1799      H1802   1.406       .  S
S1800      H1801   1.406       .  S
C1805      C1806   1.408       .  A
C1805      C1810   1.423       .  A
C1806      C1807   1.408       .  A
C1806      H1815   1.084       .  S
C1807      C1808   1.416       .  A
C1807      S1811   1.804       .  S
C1808      C1809   1.404       .  A
C1809      C1810   1.411       .  A
C1809      H1816   1.084       .  S
C1810      S1812   1.802       .  S
S1811      H1814   1.406       .  S
S1812      H1813   1.408       .  S
C1817      C1818   1.396       .  A
C1817      C1822   1.416       .  A
C1818      C1819   1.397       .  A
C1818      H1827   1.084       .  S
C1819      C1820   1.419       .  A
C1819      S1823   1.800       .  S
C1820      C1821   1.400       .  A
C1821      C1822   1.400       .  A
C1821      H1828   1.084       .  S
C1822      S1824   1.805       .  S
S1823      H1826   1.408       .  S
S1824      H1825   1.407       .  S
C1829      C1830   1.403       .  A
C1829      C1834   1.411       .  A
C1830      C1831   1.398       .  A
C1830      H1839   1.084       .  S
C1831      C1832   1.413       .  A
C1831      S1835   1.803       .  S
C1832      C1833   1.407       .  A
C1833      C1834   1.404       .  A
C1833      H1840   1.084       .  S
C1834      S1836   1.800       .  S
S1835      H1838   1.407       .  S
S1836      H1837   1.404       .  S
C1841      C1842   1.408       .  A
C1841      C1846   1.416       .  A
C1842      C1843   1.409       .  A
C1842      H1851   1.084       .  S
C1843      C1844   1.414       .  A
C1843      S1847   1.803       .  S
C1844      C1845   1.407       .  A
C1845      C1846   1.409       .  A
C1845      H1852   1.084       .  S
C1846      S1848   1.803       .  S
S1847      H1850   1.406       .  S
S1848      H1849   1.407       .  S
C1853      C1854   1.399       .  A
C1853      C1858   1.402       .  A
C1854      C1855   1.385       .  A
C1854      H1863   1.085       .  S
C1855      C1856   1.411       .  A
C1855      S1859   1.805       .  S
C1856      C1857   1.405       .  A
C1857      C1858   1.384       .  A
C1857      H1864   1.084       .  S
C1858      S1860   1.805       .  S
S1859      H1862   1.407       .  S
S1860      H1861   1.407       .  S
C1865      C1866   1.395       .  A
C1865      C1870   1.414       .  A
C1866      C1867   1.392       .  A
C1866      H1875   1.084       .  S
C1867      C1868   1.420       .  A
C1867      S1871   1.806       .  S
C1868      C1869   1.404       .  A
C1869      C1870   1.402       .  A
C1869      H1876   1.083       .  S
C1870      S1872   1.805       .  S
S1871      H1874   1.408       .  S
S1872      H1873   1.406       .  S
C1877      C1878   1.404       .  A
C1877      C1882   1.424       .  A
C1878      C1879   1.404       .  A
C1878      H1887   1.084       .  S
C1879      C1880   1.418       .  A
C1879      S1883   1.805       .  S
C1880      C1881   1.403       .  A
C1881      C1882   1.411       .  A
C1881      H1888   1.084       .  S
C1882      S1884   1.801       .  S
S1883      H1886   1.407       .  S
S1884      H1885   1.405       .  S
