geometry optimzed in LAMMPS
_audit_creation_date              2020-11-30 
_audit_creation_method            'lammps2cif' 
_symmetry_space_group_name_H-M    'P1' 
_symmetry_Int_Tables_number       1 
_symmetry_cell_setting            triclinic 
loop_ 
_symmetry_equiv_pos_as_xyz 
  x,y,z 
_cell_length_a                    42.27836822 
_cell_length_b                    42.28210674278697 
_cell_length_c                    54.70938574625772 
_cell_angle_alpha                 90.09635079130709 
_cell_angle_beta                  89.6480366480593 
_cell_angle_gamma                 120.39850564128538 
loop_ 
_atom_site_label 
_atom_site_type_symbol 
_atom_site_fract_x 
_atom_site_fract_y 
_atom_site_fract_z 
_atom_site_charge 
O1          O  0.02168371  0.23124478  0.99189643    -0.85900
O2          O  0.05154951  0.20092341  0.01883481    -0.82900
C3          C  0.02616388  0.16742562  0.01775398     0.97600
O4          O  0.02366873  0.14846155  0.99936632    -0.83000
O5          O  0.01950762  0.13066122  0.95117418    -0.85600
C6          C  0.49352972  0.13412978  0.94527132     1.02100
O7          O  0.49410741  0.16403728  0.94662403    -0.78400
O8          O  0.01571367  0.23594221  0.95280048    -0.78600
C9          C  0.00741072  0.23892629  0.97468809     1.02100
O10         O  0.09030180  0.27995064  0.96652147    -0.85900
O11         O  0.12047943  0.24596370  0.99183084    -0.82900
C12         C  0.12679953  0.22188531  0.99966484     0.97600
O13         O  0.10220768  0.18841322  0.99773311    -0.83000
O14         O  0.09762851  0.17838807  0.94747810    -0.85600
C15         C  0.08844789  0.17801757  0.92555254     1.02100
O16         O  0.06098910  0.18152046  0.92046252    -0.78400
O17         O  0.08469960  0.25213699  0.93163672    -0.78500
C18         C  0.09879208  0.28100929  0.94404368     1.02000
Cr19       Cr  0.07029434  0.23727222  0.99059674     1.93700
Cr20       Cr  0.06071208  0.16431078  0.97359666     1.93200
Cr21       Cr  0.03951691  0.20757802  0.93975734     1.39100
O22         O  0.05713898  0.20340905  0.96793200    -1.23600
O23         O  0.27121596  0.47498732  0.84570369    -0.85900
O24         O  0.30427124  0.44484521  0.82021799    -0.82900
C25         C  0.33768480  0.47012668  0.82135402     0.97600
O26         O  0.35583938  0.47449957  0.84054822    -0.83000
O27         O  0.37163571  0.47759562  0.88965327    -0.85600
C28         C  0.37168922  0.00693921  0.89928481     1.02100
O29         O  0.33956021  0.50442052  0.89487475    -0.78400
O30         O  0.26684598  0.48203282  0.88493933    -0.78600
C31         C  0.26356144  0.48960076  0.86295358     1.02100
O32         O  0.22283378  0.40678143  0.87043243    -0.85900
O33         O  0.25895300  0.37674507  0.84698962    -0.82900
C34         C  0.28380465  0.37104071  0.83956612     0.97600
O35         O  0.31693804  0.39602204  0.84195754    -0.83000
O36         O  0.32519466  0.40038494  0.89256373    -0.85600
C37         C  0.32243614  0.40817709  0.91448204     1.02100
O38         O  0.31715172  0.43463745  0.91948915    -0.78400
O39         O  0.24778732  0.41253429  0.90637759    -0.78500
C40         C  0.22006091  0.39856111  0.89296193     1.02000
Cr41       Cr  0.26674147  0.42670137  0.84768034     1.93700
Cr42       Cr  0.33938934  0.43726894  0.86642616     1.93200
Cr43       Cr  0.29348600  0.45744579  0.89923809     1.39100
O44         O  0.29954842  0.44026955  0.87121797    -1.23600
O45         O  0.24557798  0.28107014  0.31045501    -0.85900
O46         O  0.30018203  0.32204975  0.34367575    -0.82900
C47         C  0.33146533  0.34728845  0.35051910     0.97600
O48         O  0.34518406  0.37913789  0.34148914    -0.83000
O49         O  0.37288532  0.37294401  0.29678138    -0.85600
C50         C  0.37154392  0.36121071  0.27529685     1.02100
O51         O  0.34353642  0.35121059  0.26252912    -0.78400
O52         O  0.28806779  0.28786847  0.28448514    -0.78600
C53         C  0.26287096  0.26806325  0.29954982     1.02100
O54         O  0.23241189  0.34121248  0.30461537    -0.85900
O55         O  0.27950619  0.37688202  0.34300597    -0.82900
C56         C  0.29224123  0.40889691  0.33482410     0.97600
O57         O  0.31547749  0.41976341  0.31761893    -0.83000
O58         O  0.34767815  0.41707176  0.27465864    -0.85600
C59         C  0.32475284  0.41013285  0.25784826     1.02100
O60         O  0.29612616  0.37889708  0.25618048    -0.78400
O61         O  0.23848677  0.31331202  0.27278450    -0.78500
C62         C  0.22288856  0.32823462  0.28334532     1.02000
Cr63       Cr  0.26676227  0.33181870  0.32379525     1.93700
Cr64       Cr  0.34218442  0.39417923  0.30733775     1.93200
Cr65       Cr  0.29212499  0.33402287  0.27121251     1.39100
O66         O  0.30073082  0.35345957  0.30076118    -1.23600
O67         O  0.04172355  0.28243523  0.19584404    -0.85900
O68         O  0.03014438  0.32323028  0.16188676    -0.82900
C69         C  0.02406073  0.34807093  0.15464484     0.97600
O70         O  0.04103877  0.37988695  0.16392949    -0.83000
O71         O  0.00800719  0.37479034  0.20839175    -0.85600
C72         C  0.49736454  0.36723781  0.22927357     1.02100
O73         O  0.01478472  0.35369378  0.24318908    -0.78400
O74         O  0.00562161  0.28964523  0.22124174    -0.78600
C75         C  0.01146443  0.26939370  0.20703739     1.02100
O76         O  0.11598202  0.34229593  0.20257172    -0.85900
O77         O  0.10649154  0.37785078  0.16316918    -0.82900
C78         C  0.12433698  0.41069688  0.17020954     0.97600
O79         O  0.11198797  0.42141868  0.18728474    -0.83000
O80         O  0.07858699  0.41880407  0.23063909    -0.85600
C81         C  0.09471103  0.41180680  0.24743151     1.02100
O82         O  0.09013160  0.37992806  0.24948705    -0.78400
O83         O  0.07975818  0.31356141  0.23316621    -0.78500
C84         C  0.11129409  0.32868467  0.22377211     1.02000
Cr85       Cr  0.07277656  0.33308227  0.18249823     1.93700
Cr86       Cr  0.05990925  0.39559992  0.19796003     1.93200
Cr87       Cr  0.04824813  0.33551946  0.23454888     1.39100
O88         O  0.06006563  0.35490988  0.20493673    -1.23600
O89         O  0.29388009  0.02386241  0.15700740    -0.85900
O90         O  0.34999448  0.04887461  0.18754907    -0.82900
C91         C  0.35939291  0.02463106  0.18707597     0.97600
O92         O  0.37817852  0.02324951  0.16963048    -0.83000
O93         O  0.39509318  0.01986836  0.12189653    -0.85600
C94         C  0.36205430  0.49243655  0.11137740     1.02100
O95         O  0.33363966  0.49482249  0.11097585    -0.78400
O96         O  0.28842307  0.02203857  0.11746960    -0.78600
C97         C  0.27400005  0.01244968  0.13855992     1.02100
O98         O  0.32136052  0.09521385  0.13387532    -0.85900
O99         O  0.38040612  0.12037763  0.16288219    -0.82900
C100        C  0.41025815  0.12667136  0.17158422     0.97600
O101        O  0.41955548  0.10251014  0.16952536    -0.83000
O102        O  0.42974659  0.09902759  0.11940226    -0.85600
C103        C  0.42265929  0.09136396  0.09709656     1.02100
O104        O  0.39172687  0.06420421  0.09108020    -0.78400
O105        O  0.34784951  0.09135715  0.10022244    -0.78500
C106        C  0.33410757  0.10643955  0.11250258     1.02000
Cr107      Cr  0.33818346  0.07130016  0.15876933     1.93700
Cr108      Cr  0.40274684  0.06117968  0.14465615     1.93200
Cr109      Cr  0.34233762  0.04411568  0.10772281     1.39100
O110        O  0.36103396  0.05897151  0.13712924    -1.23600
O111        O  0.28095665  0.24192838  0.02957432    -0.85900
O112        O  0.32363902  0.29725046  0.99727768    -0.82900
C113        C  0.34878601  0.32884827  0.99080744     0.97600
O114        O  0.37960995  0.34399362  0.00143510    -0.83000
O115        O  0.36881652  0.36764707  0.04592078    -0.85600
C116        C  0.35815776  0.36642149  0.06763081     1.02100
O117        O  0.34708748  0.33781559  0.08027952    -0.78400
O118        O  0.28536995  0.28277539  0.05619572    -0.78600
C119        C  0.26689314  0.25810905  0.04062941     1.02100
O120        O  0.34054551  0.22863220  0.03736650    -0.85900
O121        O  0.37964306  0.27779710  0.00018157    -0.82900
C122        C  0.41114834  0.29199007  0.00946466     0.97600
O123        O  0.41975127  0.31471788  0.02657617    -0.83000
O124        O  0.41245567  0.34221505  0.06964123    -0.85600
C125        C  0.40558560  0.31755923  0.08543924     1.02100
O126        O  0.37409131  0.28909060  0.08628044    -0.78400
O127        O  0.30923169  0.23223858  0.06808970    -0.78500
C128        C  0.32441493  0.21672992  0.05768636     1.02000
Cr129      Cr  0.33258558  0.26370607  0.01778111     1.93700
Cr130      Cr  0.39211891  0.33900327  0.03612006     1.93200
Cr131      Cr  0.33031362  0.28627179  0.07054782     1.39100
O132        O  0.35174375  0.29663344  0.04142440    -1.23600
O133        O  0.25533045  0.21323485  0.81228183    -0.85900
O134        O  0.20213030  0.17224796  0.84597313    -0.82900
C135        C  0.17079475  0.14784988  0.85326921     0.97600
O136        O  0.15566502  0.11587358  0.84414117    -0.83000
O137        O  0.12791875  0.12314690  0.80059265    -0.85600
C138        C  0.12895126  0.13537182  0.77941345     1.02100
O139        O  0.15632547  0.14521213  0.76566885    -0.78400
O140        O  0.21288432  0.20734217  0.78690979    -0.78600
C141        C  0.23842494  0.22670199  0.80162821     1.02100
O142        O  0.26871401  0.15414247  0.80480457    -0.85900
O143        O  0.22180278  0.11642438  0.84353698    -0.82900
C144        C  0.20806644  0.08466916  0.83462992     0.97600
O145        O  0.18402667  0.07458491  0.81828876    -0.83000
O146        O  0.15191221  0.07872042  0.77634012    -0.85600
C147        C  0.17503873  0.08498057  0.75952238     1.02100
O148        O  0.20338272  0.11651776  0.75754879    -0.78400
O149        O  0.26183640  0.18206880  0.77346914    -0.78500
C150        C  0.27938560  0.16945606  0.78414150     1.02000
Cr151      Cr  0.23442914  0.16233651  0.82506205     1.93700
Cr152      Cr  0.15805130  0.10107891  0.80952374     1.93200
Cr153      Cr  0.20798072  0.16136191  0.77312541     1.39100
O154        O  0.19985961  0.14149622  0.80257424    -1.23600
O155        O  0.47627881  0.21026785  0.68479604    -0.85900
O156        O  0.45153283  0.15098533  0.65583350    -0.82900
C157        C  0.47616400  0.14207777  0.65511755     0.97600
O158        O  0.48104101  0.12606459  0.67286099    -0.83000
O159        O  0.48744766  0.11137852  0.72123007    -0.85600
C160        C  0.01302635  0.13961207  0.72783762     1.02100
O161        O  0.01091394  0.16811486  0.72705753    -0.78400
O162        O  0.48374769  0.21621909  0.72444869    -0.78600
C163        C  0.49092733  0.22980884  0.70318810     1.02100
O164        O  0.40661314  0.17951680  0.71089231    -0.85900
O165        O  0.38187628  0.11886696  0.68305101    -0.82900
C166        C  0.37683116  0.08882585  0.67523503     0.97600
O167        O  0.40272471  0.08203202  0.67554562    -0.83000
O168        O  0.40938805  0.07561188  0.72586866    -0.85600
C169        C  0.41848559  0.08420616  0.74792665     1.02100
O170        O  0.44527820  0.11576826  0.75290440    -0.78400
O171        O  0.41690282  0.15836784  0.74468921    -0.78500
C172        C  0.39861223  0.16885113  0.73297086     1.02000
Cr173      Cr  0.43022226  0.16335551  0.68519568     1.93700
Cr174      Cr  0.44521131  0.10184380  0.69927923     1.93200
Cr175      Cr  0.46336043  0.16381582  0.73519607     1.39100
O176        O  0.44627050  0.14326647  0.70643492    -1.23600
O177        O  0.47810217  0.26727216  0.49125628    -0.85900
O178        O  0.45074538  0.30062019  0.51864165    -0.82900
C179        C  0.47569636  0.33427343  0.51684893     0.97600
O180        O  0.47749872  0.35228526  0.49807213    -0.83000
O181        O  0.47952791  0.36738509  0.44924606    -0.85600
C182        C  0.00369457  0.36389635  0.44193102     1.02100
O183        O  0.00310587  0.33391770  0.44353513    -0.78400
O184        O  0.48230795  0.26151192  0.45197101    -0.78600
C185        C  0.49068237  0.25805350  0.47361854     1.02100
O186        O  0.40785283  0.21931343  0.46817330    -0.85900
O187        O  0.37998127  0.25498954  0.49385776    -0.82900
C188        C  0.37386352  0.27975559  0.50069198     0.97600
O189        O  0.39890682  0.31289587  0.49829298    -0.83000
O190        O  0.40142920  0.31981594  0.44778453    -0.85600
C191        C  0.40960529  0.31858308  0.42573833     1.02100
O192        O  0.43723034  0.31554060  0.42024426    -0.78400
O193        O  0.41330632  0.24544337  0.43246218    -0.78500
C194        C  0.39922314  0.21747264  0.44574323     1.02000
Cr195      Cr  0.42995310  0.26286488  0.49128169     1.93700
Cr196      Cr  0.43945260  0.33522467  0.47306179     1.93200
Cr197      Cr  0.45897337  0.29011918  0.43930513     1.39100
O198        O  0.44262913  0.29574006  0.46788843    -1.23600
O199        O  0.24117807  0.02425630  0.34740456    -0.85900
O200        O  0.20623227  0.04872961  0.31886662    -0.82900
C201        C  0.17243344  0.02385183  0.31813531     0.97600
O202        O  0.15097574  0.01877299  0.33574563    -0.83000
O203        O  0.12781510  0.01255706  0.38381870    -0.85600
C204        C  0.12895676  0.48522242  0.39330288     1.02100
O205        O  0.15936292  0.48697564  0.39233618    -0.78400
O206        O  0.23407521  0.01155598  0.38657679    -0.78600
C207        C  0.24372617  0.00739328  0.36540022     1.02100
O208        O  0.27917241  0.09254885  0.37420027    -0.85900
O209        O  0.24388186  0.11850794  0.34626512    -0.82900
C210        C  0.21924638  0.12295075  0.33711301     0.97600
O211        O  0.18654193  0.09657537  0.33780735    -0.83000
O212        O  0.17311511  0.09067158  0.38809997    -0.85600
C213        C  0.17204075  0.08148391  0.41017188     1.02100
O214        O  0.17568407  0.05423539  0.41571271    -0.78400
O215        O  0.24728565  0.07895524  0.40820363    -0.78500
C216        C  0.27700610  0.09735275  0.39699717     1.02000
Cr217      Cr  0.23971684  0.06985238  0.34831764     1.93700
Cr218      Cr  0.16271557  0.05459152  0.36189186     1.93200
Cr219      Cr  0.20413774  0.03412471  0.39784168     1.39100
O220        O  0.20261120  0.05286975  0.36930559    -1.23600
O221        O  0.21276327  0.47108832  0.65140997    -0.85900
O222        O  0.15726998  0.45252783  0.68296477    -0.82900
C223        C  0.14847573  0.47735701  0.68268857     0.97600
O224        O  0.12964663  0.47894903  0.66544097    -0.83000
O225        O  0.10985006  0.47983239  0.61801067    -0.85600
C226        C  0.13925844  0.00674510  0.61119118     1.02100
O227        O  0.16760812  0.50395888  0.60796294    -0.78400
O228        O  0.21572213  0.47769262  0.61167876    -0.78600
C229        C  0.23109635  0.48472433  0.63236665     1.02100
O230        O  0.17817444  0.39897649  0.62916173    -0.85900
O231        O  0.12113072  0.37880594  0.65988480    -0.82900
C232        C  0.09231184  0.37501163  0.66909769     0.97600
O233        O  0.08525353  0.40056364  0.66707501    -0.83000
O234        O  0.07437122  0.40159085  0.61675976    -0.85600
C235        C  0.08105701  0.40851607  0.59424030     1.02100
O236        O  0.11220249  0.43481081  0.58747712    -0.78400
O237        O  0.15663916  0.40826346  0.59511273    -0.78500
C238        C  0.16704522  0.39022562  0.60728527     1.02000
Cr239      Cr  0.16551672  0.42639716  0.65422508     1.93700
Cr240      Cr  0.10296494  0.44013896  0.64126332     1.93200
Cr241      Cr  0.16195062  0.45532375  0.60304806     1.34300
O242        O  0.14386835  0.44070056  0.63292392    -1.23600
O243        O  0.21274192  0.24904115  0.52432860    -0.85900
O244        O  0.17010146  0.19553541  0.49142217    -0.82900
C245        C  0.14559172  0.16384769  0.48486024     0.97600
O246        O  0.11440485  0.14824550  0.49533488    -0.83000
O247        O  0.12236367  0.12247470  0.53967605    -0.85600
C248        C  0.13456926  0.12416931  0.56088955     1.02100
O249        O  0.14507306  0.15226380  0.57388358    -0.78400
O250        O  0.20736273  0.20769393  0.55075210    -0.78600
C251        C  0.22655321  0.23275806  0.53546912     1.02100
O252        O  0.15382588  0.26349971  0.53283083    -0.85900
O253        O  0.11510568  0.21610511  0.49506083    -0.82900
C254        C  0.08325567  0.20156870  0.50406289     0.97600
O255        O  0.07383537  0.17761163  0.52044694    -0.83000
O256        O  0.07873609  0.14837807  0.56326425    -0.85600
C257        C  0.08568950  0.17260933  0.57938854     1.02100
O258        O  0.11746886  0.20066503  0.58065197    -0.78400
O259        O  0.18343500  0.25768405  0.56335139    -0.78500
C260        C  0.16967336  0.27451980  0.55320197     1.02000
Cr261      Cr  0.16135884  0.22851086  0.51261405     1.93700
Cr262      Cr  0.10050128  0.15243088  0.52992166     1.93200
Cr263      Cr  0.16178719  0.20377029  0.56491706     1.39100
O264        O  0.14118074  0.19450965  0.53572285    -1.23600
C265        C  0.16936831  0.09814813  0.57926904    -0.20800
C266        C  0.13549721  0.09294529  0.57173099    -0.07400
C267        C  0.10300639  0.06039629  0.57800087     0.13500
C268        C  0.10524541  0.03317664  0.59114456    -0.20900
C269        C  0.13924835  0.03781507  0.59846494    -0.07400
C270        C  0.17186390  0.07103978  0.59241681     0.13500
C271        C  0.20940075  0.07885343  0.59999593    -0.24200
H272        H  0.19403041  0.12386889  0.57502026     0.14700
H273        H  0.08010799  0.00806394  0.59567203     0.14800
C274        C  0.06593154  0.05505320  0.57179361    -0.24200
H275        H  0.23116858  0.10701309  0.59480916     0.05000
H276        H  0.21608872  0.05952278  0.59080652     0.08200
H277        H  0.21029704  0.07636197  0.62014548     0.08200
H278        H  0.06331762  0.05607358  0.55167935     0.08200
H279        H  0.06272578  0.07704037  0.58043100     0.08200
H280        H  0.04326722  0.02826053  0.57847582     0.05000
C281        C  0.19786564  0.35570755  0.59575868    -0.20800
C282        C  0.16674492  0.35921153  0.59470507    -0.07400
C283        C  0.13704502  0.33529248  0.57949578     0.13500
C284        C  0.13981031  0.30928759  0.56523874    -0.20900
C285        C  0.17088425  0.30570021  0.56623245    -0.07400
C286        C  0.20037929  0.32920340  0.58174867     0.13500
C287        C  0.23509812  0.32745227  0.58313213    -0.24200
H288        H  0.22065654  0.37438838  0.60714080     0.14700
H289        H  0.11697937  0.29077605  0.55380820     0.14800
C290        C  0.10175246  0.33608708  0.57871976    -0.24200
H291        H  0.25629898  0.35005760  0.59438661     0.05000
H292        H  0.24667691  0.32979224  0.56450319     0.08200
H293        H  0.22945198  0.30134394  0.59171683     0.08200
H294        H  0.10649885  0.36182063  0.57007219     0.08200
H295        H  0.09077569  0.33379888  0.59753527     0.08200
H296        H  0.08039014  0.31304100  0.56782468     0.05000
C297        C  0.18684204  0.14041346  0.42975742    -0.20800
C298        C  0.16522651  0.10203585  0.42947131    -0.07400
C299        C  0.13679557  0.08429833  0.44690156     0.13500
C300        C  0.13102973  0.10532587  0.46436021    -0.20900
C301        C  0.15303902  0.14384766  0.46511178    -0.07400
C302        C  0.18149486  0.16157425  0.44741921     0.13500
C303        C  0.20606927  0.20267187  0.44656353    -0.24200
H304        H  0.20842837  0.15390189  0.41618159     0.14700
H305        H  0.10921545  0.09134773  0.47770630     0.14800
C306        C  0.11146987  0.04331606  0.44654979    -0.24200
H307        H  0.22532059  0.21158671  0.43075748     0.05000
H308        H  0.22290201  0.21243065  0.46337221     0.08200
H309        H  0.18924162  0.21591101  0.44479964     0.08200
H310        H  0.12715059  0.02920694  0.44988328     0.08200
H311        H  0.09782240  0.03494241  0.42851896     0.08200
H312        H  0.08977997  0.03409066  0.46083057     0.05000
C313        C  0.99260650  0.33933194  0.56094525    -0.20800
C314        C  0.50299952  0.35321716  0.53675339    -0.07400
C315        C  0.03629129  0.38330653  0.53181892     0.13500
C316        C  0.06112023  0.40021195  0.55096146    -0.20900
C317        C  0.05256136  0.38769224  0.57523622    -0.07400
C318        C  0.01779184  0.35621128  0.58017392     0.13500
C319        C  0.00684072  0.33975406  0.60540956    -0.24200
H320        H  0.46754747  0.31638799  0.56466855     0.14700
H321        H  0.08771111  0.42375312  0.54672804     0.14800
C322        C  0.04897326  0.39798905  0.50624628    -0.24200
H323        H  0.97923153  0.31468574  0.60558880     0.05000
H324        H  0.00591567  0.35972583  0.61815154     0.08200
H325        H  0.02669382  0.33190234  0.61206215     0.08200
H326        H  0.53556666  0.41018506  0.49869557     0.08200
H327        H  0.04609288  0.37565605  0.49405547     0.08200
H328        H  0.07824344  0.42005085  0.50572414     0.05000
C329        C  0.06614191  0.39262031  0.42381563    -0.20800
C330        C  0.03543702  0.39572858  0.42978281    -0.07400
C331        C  0.03524975  0.42790637  0.42265824     0.13500
C332        C  0.06569880  0.45576316  0.41018450    -0.20900
C333        C  0.09662580  0.45288688  0.40456044    -0.07400
C334        C  0.09656722  0.42044691  0.41134054     0.13500
C335        C  0.12801488  0.41428455  0.40553501    -0.24200
H336        H  0.06649252  0.36806032  0.42897572     0.14700
H337        H  0.06542288  0.48036399  0.40507275     0.14800
C338        C  0.00328326  0.43349188  0.42774958    -0.24200
H339        H  0.12197516  0.38649132  0.41106491     0.05000
H340        H  0.15445024  0.93467962  0.41324654     0.08200
H341        H  0.13350142  0.41693244  0.38554738     0.08200
H342        H  0.51232344  0.43669913  0.45733182     0.08200
H343        H  0.97823846  0.41162842  0.41873331     0.08200
H344        H  0.00817640  0.46020564  0.42063634     0.05000
C345        C  0.34343204  0.14428710  0.39896014    -0.20800
C346        C  0.30943173  0.12508457  0.41102631    -0.07400
C347        C  0.30709385  0.13373887  0.43602252     0.13500
C348        C  0.33806608  0.16221114  0.44740737    -0.20900
C349        C  0.37096860  0.18287194  0.43467801    -0.07400
C350        C  0.37411451  0.17317436  0.41035205     0.13500
C351        C  0.40975979  0.19303712  0.39625269    -0.24200
H352        H  0.34586545  0.13745272  0.38020554     0.14700
H353        H  0.33593867  0.16996111  0.46599261     0.14800
C354        C  0.27218257  0.11453303  0.45101718    -0.24200
H355        H  0.40797813  0.17970921  0.37839287     0.05000
H356        H  0.43199881  0.19301863  0.40693380     0.08200
H357        H  0.41699865  0.22165896  0.39234398     0.08200
H358        H  0.26266419  0.08484865  0.45246863     0.08200
H359        H  0.25070223  0.11867549  0.44261436     0.08200
H360        H  0.27613650  0.12535672  0.46996004     0.05000
C361        C  0.50821531  0.22540147  0.50299548    -0.20800
C362        C  0.01319426  0.24263473  0.48028881    -0.07400
C363        C  0.04227708  0.24665145  0.46524158     0.13500
C364        C  0.06401902  0.23208652  0.47313550    -0.20900
C365        C  0.05740332  0.21349206  0.49566859    -0.07400
C366        C  0.02784782  0.20920292  0.51050904     0.13500
C367        C  0.52349384  0.19668887  0.53732207    -0.24200
H368        H  0.48788245  0.22515175  0.51528050     0.14700
H369        H  0.08666335  0.23569926  0.46173364     0.14800
C370        C  0.05141306  0.26734959  0.44142228    -0.24200
H371        H  0.50270294  0.20062225  0.54719220     0.05000
H372        H  0.54958219  0.21178394  0.54756792     0.08200
H373        H  0.01112570  0.16162155  0.53336551     0.08200
H374        H  0.05708841  0.29568185  0.44470199     0.08200
H375        H  0.02814497  0.25313987  0.42857701     0.08200
H376        H  0.07600078  0.26922273  0.43254043     0.05000
C377        C  0.31403463  0.23238287  0.51881674    -0.20800
C378        C  0.33750971  0.26931752  0.51195761    -0.07400
C379        C  0.32497281  0.29446548  0.51528165     0.13500
C380        C  0.28933866  0.28173162  0.52429191    -0.20900
C381        C  0.26554240  0.24464218  0.53019340    -0.07400
C382        C  0.27837800  0.21977218  0.52786373     0.13500
C383        C  0.25418795  0.17965775  0.53379691    -0.24200
H384        H  0.32331978  0.21289420  0.51667471     0.14700
H385        H  0.27956185  0.30088086  0.52619789     0.14800
C386        C  0.34810783  0.33452532  0.50872677    -0.24200
H387        H  0.26823585  0.16392083  0.53013557     0.05000
H388        H  0.22900791  0.16768387  0.52249335     0.08200
H389        H  0.24658120  0.17637406  0.55345842     0.08200
H390        H  0.35557512  0.33749491  0.48902766     0.08200
H391        H  0.37324553  0.34762961  0.52006372     0.08200
H392        H  0.33333999  0.34964212  0.51207052     0.05000
C393        C  0.02625128  0.18591283  0.62724635    -0.20800
C394        C  0.49988385  0.14996198  0.63338553    -0.07400
C395        C  0.49976961  0.12131537  0.62010604     0.13500
C396        C  0.02809796  0.12977608  0.60169381    -0.20900
C397        C  0.05614787  0.16621902  0.59738525    -0.07400
C398        C  0.05447796  0.19479360  0.60995191     0.13500
C399        C  0.08176825  0.23461522  0.60506744    -0.24200
H400        H  0.02571750  0.20758511  0.63754566     0.14700
H401        H  0.02835508  0.10765490  0.59185085     0.14800
C402        C  0.47065906  0.08187301  0.62449225    -0.24200
H403        H  0.07507663  0.25306379  0.61550580     0.05000
H404        H  0.08159129  0.24054874  0.58534373     0.08200
H405        H  0.10966012  0.24114801  0.61053050     0.08200
H406        H  0.44312588  0.07841585  0.62149307     0.08200
H407        H  0.47231498  0.07373254  0.64349629     0.08200
H408        H  0.47383789  0.06297595  0.61193812     0.05000
C409        C  0.02864302  0.32599966  0.67903626    -0.20800
C410        C  0.06644769  0.33999291  0.68158404    -0.07400
C411        C  0.07861396  0.31898842  0.69452642     0.13500
C412        C  0.05280738  0.28368622  0.70293397    -0.20900
C413        C  0.01537196  0.26872129  0.69845717    -0.07400
C414        C  0.50504940  0.29349517  0.69295640     0.13500
C415        C  0.46517130  0.28226048  0.69516305    -0.24200
H416        H  0.01917202  0.34210161  0.66954251     0.14700
H417        H  0.06203247  0.26690774  0.71179454     0.14800
C418        C  0.11865308  0.33334303  0.69958569    -0.24200
H419        H  0.46038756  0.30482053  0.68981181     0.05000
H420        H  0.45585382  0.27451650  0.71438055     0.08200
H421        H  0.44840206  0.25843782  0.68311397     0.08200
H422        H  0.13069900  0.36030460  0.70891526     0.08200
H423        H  0.13371672  0.33618457  0.68229929     0.08200
H424        H  0.12261949  0.31448086  0.71159316     0.05000
C425        C  0.27429928  0.02546381  0.67305204    -0.20800
C426        C  0.26802142  0.01465012  0.64831110    -0.07400
C427        C  0.29862098  0.02831401  0.63224545     0.13500
C428        C  0.33429440  0.05148693  0.64153112    -0.20900
C429        C  0.33990474  0.06172992  0.66630367    -0.07400
C430        C  0.30944650  0.04862892  0.68214847     0.13500
C431        C  0.31390336  0.05846351  0.70894289    -0.24200
H432        H  0.25136661  0.01566370  0.68567222     0.14700
H433        H  0.35781047  0.06227466  0.62934460     0.14800
C434        C  0.27237450  0.56222143  0.61460500    -0.24200
H435        H  0.28730615  0.04453299  0.71894427     0.05000
H436        H  0.32567537  0.08843776  0.71117312     0.08200
H437        H  0.33228975  0.05009536  0.71751103     0.08200
H438        H  0.24676088  0.55754946  0.62364064     0.08200
H439        H  0.26573330  0.54924900  0.59626185     0.08200
H440        H  0.29074229  0.59223065  0.61211904     0.05000
C441        C  0.18814919  0.06530536  0.71947646    -0.20800
C442        C  0.16798953  0.05540821  0.74148667    -0.07400
C443        C  0.14139381  0.01768742  0.74540039     0.13500
C444        C  0.12895899  0.50894605  0.71169303    -0.20900
C445        C  0.15758836  0.50411307  0.70309274    -0.07400
C446        C  0.18170924  0.03937698  0.70120384     0.13500
C447        C  0.20384311  0.05293049  0.67788524    -0.24200
H448        H  0.20857257  0.09377172  0.71609769     0.14700
H449        H  0.10148333  0.49110858  0.70484013     0.14800
C450        C  0.11802202  0.00413230  0.76821949    -0.24200
H451        H  0.23352065  0.06680155  0.68222162     0.05000
H452        H  0.19807034  0.07294805  0.66883890     0.08200
H453        H  0.19784484  0.03068331  0.66471844     0.08200
H454        H  0.09983782  0.01592632  0.76938112     0.08200
H455        H  0.13559200  0.01171674  0.78465068     0.08200
H456        H  0.07742688  0.52140353  0.72570427     0.05000
C457        C  0.03675552  0.10669846  0.75199236    -0.20800
C458        C  0.04349842  0.13974420  0.74115474    -0.07400
C459        C  0.07786375  0.17203944  0.74489780     0.13500
C460        C  0.10459709  0.16996193  0.75867009    -0.20900
C461        C  0.09773647  0.13691198  0.76926222    -0.07400
C462        C  0.06343407  0.10491317  0.76600657     0.13500
C463        C  0.05552827  0.06857247  0.77631042    -0.24200
H464        H  0.01032466  0.08202656  0.74962857     0.14700
H465        H  0.13141943  0.19420702  0.76085804     0.14800
C466        C  0.08721918  0.20857778  0.73403303    -0.24200
H467        H  0.02753715  0.04615297  0.77157896     0.05000
H468        H  0.05764631  0.07026087  0.79653505     0.08200
H469        H  0.07551207  0.06132365  0.76883251     0.08200
H470        H  0.06974318  0.21840589  0.74234306     0.08200
H471        H  0.08322075  0.20598564  0.71393370     0.08200
H472        H  0.11618424  0.22992609  0.73750800     0.05000
C473        C  0.36024556  0.19667476  0.74099676    -0.20800
C474        C  0.36804717  0.16891489  0.74600889    -0.07400
C475        C  0.34742076  0.14227959  0.76423875     0.13500
C476        C  0.31977631  0.14435536  0.77687719    -0.20900
C477        C  0.31155059  0.17174190  0.77172097    -0.07400
C478        C  0.33233363  0.19861643  0.75365618     0.13500
C479        C  0.32618886  0.22999780  0.74790666    -0.24200
H480        H  0.37641214  0.21722441  0.72734477     0.14700
H481        H  0.30392654  0.12385542  0.79060342     0.14800
C482        C  0.35335594  0.11080942  0.77029735    -0.24200
H483        H  0.34719801  0.24989064  0.73498925     0.05000
H484        H  0.32772491  0.24503610  0.76493672     0.08200
H485        H  0.29910729  0.21962029  0.73915347     0.08200
H486        H  0.38023879  0.12125074  0.77927723     0.08200
H487        H  0.35215164  0.09565883  0.75344743     0.08200
H488        H  0.33218190  0.09090594  0.78313159     0.05000
C489        C  0.37689243  0.44280884  0.11221980    -0.20800
C490        C  0.36122404  0.46046974  0.09989717    -0.07400
C491        C  0.34578190  0.44794970  0.07644631     0.13500
C492        C  0.34564105  0.41746943  0.06621201    -0.20900
C493        C  0.36000959  0.39894998  0.07893468    -0.07400
C494        C  0.37625580  0.41196443  0.10212753     0.13500
C495        C  0.39406584  0.39428822  0.11596676    -0.24200
H496        H  0.38923760  0.45292695  0.12995593     0.14700
H497        H  0.33374753  0.40766021  0.04832508     0.14800
C498        C  0.33047847  0.46724634  0.06171988    -0.24200
H499        H  0.40705424  0.40929123  0.13309574     0.05000
H500        H  0.41574810  0.39417381  0.10448338     0.08200
H501        H  0.37331414  0.36576568  0.12109907     0.08200
H502        H  0.35173541  0.49656431  0.05932551     0.08200
H503        H  0.30610330  0.46508022  0.07107606     0.08200
H504        H  0.32169450  0.45501303  0.04325888     0.05000
C505        C  0.35948262  0.18964567  0.07377605    -0.20800
C506        C  0.32528011  0.18667765  0.07061772    -0.07400
C507        C  0.29404324  0.15821703  0.08262761     0.13500
C508        C  0.29786800  0.13326551  0.09740217    -0.20900
C509        C  0.33214168  0.13642576  0.10055594    -0.07400
C510        C  0.36348673  0.16533338  0.08897037     0.13500
C511        C  0.40143043  0.17142969  0.09322879    -0.24200
H512        H  0.38347611  0.21207759  0.06511795     0.14700
H513        H  0.27390073  0.11055003  0.10588962     0.14800
C514        C  0.25644403  0.15308208  0.07913119    -0.24200
H515        H  0.42290972  0.19693951  0.08424910     0.05000
H516        H  0.40374033  0.14835916  0.08565537     0.08200
H517        H  0.40719869  0.17389267  0.11313911     0.08200
H518        H  0.24986503  0.15008030  0.05936043     0.08200
H519        H  0.25536256  0.17688206  0.08664806     0.08200
H520        H  0.23496006  0.12814815  0.08863757     0.05000
C521        C  0.46156578  0.30651675  0.13663983    -0.20800
C522        C  0.99601790  0.33994336  0.13560612    -0.07400
C523        C  0.00077766  0.36570980  0.11740508     0.13500
C524        C  0.46882483  0.35713170  0.10134785    -0.20900
C525        C  0.43528186  0.32368385  0.10303225    -0.07400
C526        C  0.43187388  0.29786242  0.12101257     0.13500
C527        C  0.39729839  0.26129441  0.12422230    -0.24200
H528        H  0.45867766  0.28705855  0.15062190     0.14700
H529        H  0.47229516  0.37711029  0.08763571     0.14800
C530        C  0.03636978  0.40158098  0.11452039    -0.24200
H531        H  0.39122586  0.24537878  0.10707614     0.05000
H532        H  0.37409037  0.26536809  0.12912260     0.08200
H533        H  0.39986944  0.24472299  0.13897946     0.08200
H534        H  0.05946785  0.39634569  0.11242167     0.08200
H535        H  0.04107797  0.41933302  0.13064688     0.08200
H536        H  0.03620526  0.41703532  0.09817094     0.05000
C537        C  0.46934941  0.17123191  0.19154064    -0.20800
C538        C  0.43409749  0.16254271  0.18414847    -0.07400
C539        C  0.42282646  0.18875977  0.18857068     0.13500
C540        C  0.44793234  0.22330150  0.19826044    -0.20900
C541        C  0.48395295  0.23278214  0.20350114    -0.07400
C542        C  0.49435640  0.20588287  0.20111325     0.13500
C543        C  0.53177606  0.21340852  0.20878305    -0.24200
H544        H  0.47795368  0.15124908  0.18909128     0.14700
H545        H  0.94172109  0.24459202  0.19639817     0.14800
C546        C  0.38482908  0.18152998  0.18284315    -0.24200
H547        H  0.53399188  0.18836453  0.20769757     0.05000
H548        H  0.53700429  0.22318837  0.22799355     0.08200
H549        H  0.55339086  0.23428063  0.19671013     0.08200
H550        H  0.36400634  0.15668353  0.19275774     0.08200
H551        H  0.37995877  0.17809943  0.16284545     0.08200
H552        H  0.88400541  0.20824552  0.18141270     0.05000
C553        C  0.18309189  0.42187220  0.15205126    -0.20800
C554        C  0.16041342  0.43598419  0.15870072    -0.07400
C555        C  0.17328325  0.47373699  0.15494709     0.13500
C556        C  0.20890887  0.49649664  0.14570029    -0.20900
C557        C  0.23206297  0.48261937  0.14041513    -0.07400
C558        C  0.21900108  0.44489270  0.14341302     0.13500
C559        C  0.24352193  0.42929666  0.13845906    -0.24200
H560        H  0.17336730  0.39299053  0.15481942     0.14700
H561        H  0.23939968  0.02122125  0.17564458     0.14800
C562        C  0.14979442  0.49029989  0.16060322    -0.24200
H563        H  0.22906273  0.39924071  0.14172721     0.05000
H564        H  0.26774890  0.44242818  0.15064745     0.08200
H565        H  0.25295945  0.43452853  0.11912655     0.08200
H566        H  0.14426880  0.48897720  0.18053465     0.08200
H567        H  0.12350318  0.47529716  0.15054789     0.08200
H568        H  0.16348608  0.51959729  0.15509290     0.05000
C569        C  0.11114935  0.47106550  0.26738711    -0.20800
C570        C  0.11751275  0.44149300  0.26524495    -0.07400
C571        C  0.14514770  0.44157398  0.27995666     0.13500
C572        C  0.16417616  0.47015844  0.29691036    -0.20900
C573        C  0.15696431  0.99986875  0.29663522    -0.07400
C574        C  0.12986749  0.49919168  0.28447287     0.13500
C575        C  0.12099512  0.03088117  0.28534046    -0.24200
H576        H  0.09052683  0.47176285  0.25611362     0.14700
H577        H  0.18432646  0.46966079  0.30882603     0.14800
C578        C  0.15499609  0.41199384  0.27798902    -0.24200
H579        H  0.10057086  0.52662327  0.27282521     0.05000
H580        H  0.14609935  0.05778946  0.28187045     0.08200
H581        H  0.11086574  0.03059327  0.30414586     0.08200
H582        H  0.16301229  0.41026113  0.25888197     0.08200
H583        H  0.13136044  0.38518516  0.28367506     0.08200
H584        H  0.17839008  0.41760944  0.28997337     0.05000
C585        C  0.33259678  0.31032007  0.38571919    -0.20800
C586        C  0.35206567  0.34007410  0.36961809    -0.07400
C587        C  0.39091014  0.36173419  0.37182425     0.13500
C588        C  0.40867677  0.35317667  0.38995715    -0.20900
C589        C  0.38902838  0.32426462  0.40629924    -0.07400
C590        C  0.35057602  0.30241100  0.40419041     0.13500
C591        C  0.32863706  0.27024666  0.42100193    -0.24200
H592        H  0.30308687  0.29341194  0.38408649     0.14700
H593        H  0.43822045  0.36974827  0.39179536     0.14800
C594        C  0.41443774  0.39358712  0.35509334    -0.24200
H595        H  0.29906863  0.25522982  0.41624708     0.05000
H596        H  0.33110680  0.27985222  0.44016318     0.08200
H597        H  0.33891563  0.25076965  0.41966015     0.08200
H598        H  0.40763373  0.41555227  0.35741871     0.08200
H599        H  0.41036909  0.38412026  0.33586770     0.08200
H600        H  0.44411119  0.40600046  0.35910765     0.05000
C601        C  0.30825706  0.45145834  0.23620668    -0.20800
C602        C  0.33305865  0.43908896  0.23965514    -0.07400
C603        C  0.36665294  0.45597323  0.22667067     0.13500
C604        C  0.37429035  0.48431251  0.21020017    -0.20900
C605        C  0.34980428  0.99762791  0.20705722    -0.07400
C606        C  0.31614496  0.48032295  0.21987338     0.13500
C607        C  0.28152269  0.97531738  0.20413971    -0.24200
H608        H  0.28275867  0.43865355  0.24650315     0.14700
H609        H  0.39982870  0.49663202  0.19996120     0.14800
C610        C  0.39406239  0.44332375  0.22943355    -0.24200
H611        H  0.25490071  0.95421346  0.21216138     0.05000
H612        H  0.28015767  0.97056641  0.18414852     0.08200
H613        H  0.28496549  0.00264571  0.20804820     0.08200
H614        H  0.38079268  0.41361576  0.22521101     0.08200
H615        H  0.40480221  0.44825439  0.24835617     0.08200
H616        H  0.41788566  0.45822728  0.21688097     0.05000
C617        C  0.43872010  0.38653649  0.27213121    -0.20800
C618        C  0.40344489  0.36138500  0.26373571    -0.07400
C619        C  0.39960026  0.33902658  0.24311917     0.13500
C620        C  0.43100099  0.34285373  0.23156127    -0.20900
C621        C  0.46590488  0.36790447  0.24005082    -0.07400
C622        C  0.47000191  0.39011127  0.26048932     0.13500
C623        C  0.00092439  0.39241404  0.28107429    -0.24200
H624        H  0.44191066  0.40409734  0.28750602     0.14700
H625        H  0.42834282  0.32551528  0.21614883     0.14800
C626        C  0.36277546  0.31023343  0.23335228    -0.24200
H627        H  0.99711947  0.40272229  0.29889611     0.05000
H628        H  0.02452483  0.41557450  0.27154985     0.08200
H629        H  0.00736411  0.37059006  0.28510951     0.08200
H630        H  0.34839832  0.32336942  0.22503968     0.08200
H631        H  0.34589267  0.29141137  0.24831000     0.08200
H632        H  0.36552143  0.29334522  0.21884250     0.05000
C633        C  0.20439124  0.34784326  0.24669121    -0.20800
C634        C  0.19457826  0.33082050  0.26975042    -0.07400
C635        C  0.15789153  0.31361803  0.27760630     0.13500
C636        C  0.13181030  0.31340545  0.26196521    -0.20900
C637        C  0.14121143  0.32987278  0.23854592    -0.07400
C638        C  0.17837789  0.34802842  0.23103881     0.13500
C639        C  0.19116766  0.36770147  0.20684600    -0.24200
H640        H  0.23270710  0.36085911  0.24073566     0.14700
H641        H  0.10359780  0.29973033  0.26830435     0.14800
C642        C  0.14484841  0.29390428  0.30176800    -0.24200
H643        H  0.22128454  0.38042562  0.20431987     0.05000
H644        H  0.18463850  0.39001319  0.20585205     0.08200
H645        H  0.17769462  0.34807564  0.19161887     0.08200
H646        H  0.16697877  0.29425940  0.31267915     0.08200
H647        H  0.12382122  0.26476340  0.29848863     0.08200
H648        H  0.13233887  0.30686264  0.31280816     0.05000
C649        C  0.26698018  0.18505555  0.32193847    -0.20800
C650        C  0.22941293  0.15886401  0.32512196    -0.07400
C651        C  0.20318851  0.16819212  0.31721670     0.13500
C652        C  0.21522912  0.20334698  0.30753254    -0.20900
C653        C  0.25264181  0.22965393  0.30520648    -0.07400
C654        C  0.27884958  0.22016977  0.31221061     0.13500
C655        C  0.31934125  0.24765828  0.31079210    -0.24200
H656        H  0.28744950  0.17842540  0.32761996     0.14700
H657        H  0.19516403  0.21082629  0.30232641     0.14800
C658        C  0.16244950  0.14204315  0.31944094    -0.24200
H659        H  0.33604517  0.23609743  0.31769402     0.05000
H660        H  0.32578926  0.27210274  0.32200786     0.08200
H661        H  0.32750722  0.25618007  0.29151901     0.08200
H662        H  0.15479206  0.13450871  0.33890446     0.08200
H663        H  0.15448103  0.11708212  0.30840670     0.08200
H664        H  0.14635982  0.15435707  0.31265156     0.05000
C665        C  0.30182070  0.47155344  0.34096670    -0.20800
C666        C  0.28016288  0.43374841  0.34550607    -0.07400
C667        C  0.24685544  0.42075237  0.35900659     0.13500
C668        C  0.23630172  0.44577563  0.36711688    -0.20900
C669        C  0.25745238  0.48319617  0.36166854    -0.07400
C670        C  0.29375693  0.99624289  0.35028721     0.13500
C671        C  0.31980732  0.03682492  0.34709808    -0.24200
H672        H  0.32733621  0.48190519  0.33089180     0.14700
H673        H  0.21047763  0.43585447  0.37675487     0.14800
C674        C  0.22118221  0.38055075  0.36408719    -0.24200
H675        H  0.34663824  0.04267153  0.33944885     0.05000
H676        H  0.32486838  0.05072977  0.36509058     0.08200
H677        H  0.30807734  0.04858316  0.33440644     0.08200
H678        H  0.23490779  0.36969805  0.37577574     0.08200
H679        H  0.21248186  0.36513239  0.34662508     0.08200
H680        H  0.19599284  0.37560955  0.37390104     0.05000
C681        C  0.36970359  0.02170776  0.76133463    -0.20800
C682        C  0.39873795  0.05673620  0.76779584    -0.07400
C683        C  0.40805368  0.06422761  0.79291294     0.13500
C684        C  0.38157998  0.53233977  0.80678283    -0.20900
C685        C  0.35590748  0.49600791  0.80074735    -0.07400
C686        C  0.35018106  0.99421883  0.77892249     0.13500
C687        C  0.32023026  0.95710288  0.77052865    -0.24200
H688        H  0.36221331  0.01553450  0.74229186     0.14700
H689        H  0.38660301  0.54003866  0.82590098     0.14800
C690        C  0.43861164  0.10071871  0.80196842    -0.24200
H691        H  0.31784115  0.95555281  0.75029985     0.05000
H692        H  0.29341689  0.95137416  0.77807878     0.08200
H693        H  0.32617860  0.93562294  0.77664898     0.08200
H694        H  0.43312650  0.12293689  0.79707062     0.08200
H695        H  0.46519741  0.10641685  0.79401873     0.08200
H696        H  0.42757212  0.59973986  0.81782208     0.05000
C697        C  0.22705204  0.05709425  0.86782427    -0.20800
C698        C  0.22137967  0.05996166  0.84281184    -0.07400
C699        C  0.23122484  0.04135353  0.82570497     0.13500
C700        C  0.22951861  0.50662598  0.83407448    -0.20900
C701        C  0.25152979  0.01673199  0.85903269    -0.07400
C702        C  0.24143362  0.03532654  0.87622076     0.13500
C703        C  0.24562849  0.03260541  0.90332217    -0.24200
H704        H  0.21983161  0.07173816  0.88089480     0.14700
H705        H  0.22613128  0.48401380  0.82281687     0.14800
C706        C  0.19721466  0.51965715  0.80091185    -0.24200
H707        H  0.23686228  0.04933702  0.91389681     0.05000
H708        H  0.27481439  0.04267490  0.90768875     0.08200
H709        H  0.22835320  0.00370176  0.90939869     0.08200
H710        H  0.21178013  0.54390805  0.78871599     0.08200
H711        H  0.16796842  0.51175597  0.80280656     0.08200
H712        H  0.19793247  0.49648142  0.79187534     0.05000
C713        C  0.23618635  0.31118384  0.82225796    -0.20800
C714        C  0.27356261  0.33554712  0.82732098    -0.07400
C715        C  0.29947944  0.32499362  0.82079378     0.13500
C716        C  0.28704290  0.29002600  0.81089647    -0.20900
C717        C  0.24961271  0.26521997  0.80710733    -0.07400
C718        C  0.22391374  0.27625003  0.81231583     0.13500
C719        C  0.18338936  0.25070797  0.80867880    -0.24200
H720        H  0.21611269  0.31907824  0.82660166     0.14700
H721        H  0.30669185  0.28145108  0.80673548     0.14800
C722        C  0.34015638  0.34956723  0.82462297    -0.24200
H723        H  0.16711906  0.26345364  0.81440382     0.05000
H724        H  0.17390148  0.22538021  0.81967078     0.08200
H725        H  0.17781344  0.24347060  0.78905272     0.08200
H726        H  0.35586696  0.33636295  0.81858400     0.08200
H727        H  0.34590804  0.35612476  0.84433182     0.08200
H728        H  0.35038308  0.37515953  0.81381887     0.05000
C729        C  0.36190047  0.38859802  0.93489297    -0.20800
C730        C  0.32836713  0.38785425  0.93430561    -0.07400
C731        C  0.30115370  0.36688052  0.95191676     0.13500
C732        C  0.30823615  0.34723751  0.96975683    -0.20900
C733        C  0.34221894  0.34866361  0.97074734    -0.07400
C734        C  0.36939282  0.36972415  0.95298845     0.13500
C735        C  0.40601479  0.37169163  0.95250164    -0.24200
H736        H  0.38257816  0.40447771  0.92120648     0.14700
H737        H  0.28734610  0.33120189  0.98328577     0.14800
C738        C  0.26437608  0.36448471  0.95152408    -0.24200
H739        H  0.42281568  0.38734491  0.93643434     0.05000
H740        H  0.40187961  0.34360516  0.95154328     0.08200
H741        H  0.42185266  0.38577065  0.96910852     0.08200
H742        H  0.25083180  0.35329765  0.93370382     0.08200
H743        H  0.26795400  0.39213349  0.95420241     0.08200
H744        H  0.24597887  0.34631014  0.96622598     0.05000
C745        C  0.00931927  0.16044821  0.06216956    -0.20800
C746        C  0.99898555  0.14963295  0.03787440    -0.07400
C747        C  0.46657565  0.11655232  0.03411466     0.13500
C748        C  0.44234874  0.09909647  0.05365387    -0.20900
C749        C  0.45054002  0.11259647  0.07763228    -0.07400
C750        C  0.48434309  0.14555827  0.08189238     0.13500
C751        C  0.49477340  0.16301703  0.10681503    -0.24200
H752        H  0.03700349  0.18238436  0.06585738     0.14700
H753        H  0.41651893  0.07433584  0.04999123     0.14800
C754        C  0.45399711  0.10045614  0.00889565    -0.24200
H755        H  0.02657129  0.17935159  0.10752358     0.05000
H756        H  0.49739569  0.14434199  0.11979764     0.08200
H757        H  0.47370887  0.16930201  0.11351841     0.08200
H758        H  0.47127094  0.08960737  0.00175746     0.08200
H759        H  0.45520345  0.12165179  0.99633761     0.08200
H760        H  0.42525515  0.07721151  0.00896713     0.05000
C761        C  0.14744802  0.19053548  0.90714733    -0.20800
C762        C  0.10899018  0.17142718  0.90611970    -0.07400
C763        C  0.09111699  0.14445126  0.88793175     0.13500
C764        C  0.11214958  0.13726862  0.87129700    -0.20900
C765        C  0.15071809  0.15654374  0.87209867    -0.07400
C766        C  0.16860197  0.18386517  0.89024570     0.13500
C767        C  0.20979029  0.20550156  0.89246569    -0.24200
H768        H  0.16103143  0.21094432  0.92130085     0.14700
H769        H  0.09825446  0.11656337  0.85737116     0.14800
C770        C  0.04987457  0.12206853  0.88656967    -0.24200
H771        H  0.21869354  0.22393716  0.90860854     0.05000
H772        H  0.22211365  0.22299530  0.87604887     0.08200
H773        H  0.22054114  0.18652620  0.89452524     0.08200
H774        H  0.03857842  0.14016735  0.88266492     0.08200
H775        H  0.03854937  0.10757242  0.90417029     0.08200
H776        H  0.04053092  0.10113124  0.87187485     0.05000
C777        C  0.46507294  0.07123723  0.92816929    -0.20800
C778        C  0.46120391  0.10125225  0.93473622    -0.07400
C779        C  0.42748217  0.09964965  0.92984720     0.13500
C780        C  0.39944079  0.06877564  0.91806614    -0.20900
C781        C  0.40352929  0.03902959  0.91103126    -0.07400
C782        C  0.43691731  0.04022940  0.91651900     0.13500
C783        C  0.41730600  0.49615517  0.93280087    -0.24200
H784        H  0.49067577  0.07214410  0.93186240     0.14700
H785        H  0.37393518  0.06802956  0.91429657     0.14800
C786        C  0.42020128  0.12992625  0.93695676    -0.24200
H787        H  0.47112711  0.01512649  0.91634625     0.05000
H788        H  0.42150565  0.48207866  0.91706001     0.08200
H789        H  0.38892747  0.47919160  0.93998147     0.08200
H790        H  0.93774264  0.15405799  0.92481793     0.08200
H791        H  0.42451960  0.13531909  0.95688244     0.08200
H792        H  0.39158638  0.12269769  0.93294897     0.05000
C793        C  0.12779735  0.31389847  0.90545925    -0.20800
C794        C  0.12563673  0.31541629  0.93118275    -0.07400
C795        C  0.15121558  0.34790166  0.94328778     0.13500
C796        C  0.18033588  0.37574447  0.92979203    -0.20900
C797        C  0.18453413  0.37223310  0.90452156    -0.07400
C798        C  0.15692662  0.34157573  0.89202577     0.13500
C799        C  0.15896128  0.33645497  0.86488906    -0.24200
H800        H  0.10747812  0.28987433  0.89573183     0.14700
H801        H  0.20092417  0.39990418  0.93929028     0.14800
C802        C  0.14889069  0.35331961  0.97031433    -0.24200
H803        H  0.13528005  0.31033268  0.85836340     0.05000
H804        H  0.18428963  0.33585630  0.86042528     0.08200
H805        H  0.15884415  0.35916757  0.85482586     0.08200
H806        H  0.15121931  0.33218435  0.98071502     0.08200
H807        H  0.12234405  0.35149948  0.97469501     0.08200
H808        H  0.17121386  0.38055172  0.97650070     0.05000
C809        C  0.48463294  0.26554153  0.00767733    -0.20800
C810        C  0.48355738  0.25480613  0.98310836    -0.07400
C811        C  0.45941166  0.25814179  0.96691001     0.13500
C812        C  0.43651643  0.27091020  0.97590298    -0.20900
C813        C  0.43759502  0.28118540  0.00052532    -0.07400
C814        C  0.46227154  0.27857976  0.01657622     0.13500
C815        C  0.46450526  0.28809141  0.04341296    -0.24200
H816        H  0.00632314  0.26671674  0.01781038     0.14700
H817        H  0.41759724  0.27289249  0.96360136     0.14800
C818        C  0.45708008  0.24789823  0.94034820    -0.24200
H819        H  0.98796378  0.28565821  0.05103660     0.05000
H820        H  0.94103243  0.27428353  0.05110844     0.08200
H821        H  0.47456053  0.31778405  0.04562864     0.08200
H822        H  0.44938389  0.21870303  0.93868026     0.08200
H823        H  0.48391443  0.26563808  0.93121946     0.08200
H824        H  0.43617114  0.25150766  0.93056929     0.05000
C825        C  0.16779293  0.20426207  0.02045642    -0.20800
C826        C  0.16234633  0.23245060  0.01183423    -0.07400
C827        C  0.19081739  0.26950831  0.01525733     0.13500
C828        C  0.22362019  0.27689771  0.02652743    -0.20900
C829        C  0.22936082  0.24859585  0.03393485    -0.07400
C830        C  0.20090336  0.21179512  0.03119151     0.13500
C831        C  0.20504454  0.18026878  0.03983030    -0.24200
H832        H  0.14626640  0.17591741  0.01838453     0.14700
H833        H  0.24581729  0.30503292  0.02836060     0.14800
C834        C  0.18786249  0.30171929  0.00662595    -0.24200
H835        H  0.17933449  0.15349957  0.03757478     0.05000
H836        H  0.21207592  0.18381003  0.05952504     0.08200
H837        H  0.22676374  0.17898482  0.02918686     0.08200
H838        H  0.16447774  0.30177371  0.01591706     0.08200
H839        H  0.18424321  0.30024245  0.98649885     0.08200
H840        H  0.21290577  0.32832102  0.01076406     0.05000
O841        O  0.02065318  0.73201048  0.99013867    -0.85900
O842        O  0.05021836  0.70186057  0.01800317    -0.82900
C843        C  0.02610143  0.66791025  0.01676894     0.97600
O844        O  0.02494108  0.64965881  0.99831843    -0.83000
O845        O  0.02046274  0.63217802  0.95001868    -0.85600
C846        C  0.49030428  0.63205654  0.94187294     1.02100
O847        O  0.49068573  0.66183869  0.94348506    -0.78400
O848        O  0.01713441  0.73813866  0.95094893    -0.78600
C849        C  0.00788397  0.74091547  0.97262058     1.02100
O850        O  0.09026624  0.78129294  0.96591720    -0.85900
O851        O  0.12023590  0.74820958  0.99253120    -0.82900
C852        C  0.12724008  0.72433317  0.99984645     0.97600
O853        O  0.10359204  0.69068395  0.99680506    -0.83000
O854        O  0.09911640  0.68028358  0.94643055    -0.85600
C855        C  0.08979780  0.67923927  0.92446237     1.02100
O856        O  0.06250355  0.68302279  0.91936739    -0.78400
O857        O  0.08656128  0.75381835  0.93112095    -0.78500
C858        C  0.09979087  0.78257970  0.94363556     1.02000
Cr859      Cr  0.06966668  0.73849612  0.98991557     1.93700
Cr860      Cr  0.06198774  0.66612257  0.97256133     1.93200
Cr861      Cr  0.04103204  0.70935994  0.93856538     1.39100
O862        O  0.05794245  0.70500823  0.96701855    -1.23600
O863        O  0.27479937  0.97827328  0.84830765    -0.85900
O864        O  0.30799487  0.94900509  0.82230498    -0.82900
C865        C  0.34121095  0.97465796  0.82390668     0.97600
O866        O  0.35904462  0.97804813  0.84306955    -0.83000
O867        O  0.37380905  0.97968245  0.89201696    -0.85600
C868        C  0.36948757  0.50500371  0.89648040     1.02100
O869        O  0.34153807  0.00598645  0.89776075    -0.78400
O870        O  0.26875954  0.98355818  0.88746586    -0.78600
C871        C  0.26626746  0.99211623  0.86559012     1.02100
O872        O  0.22563175  0.90931048  0.87180401    -0.85900
O873        O  0.26186914  0.87965620  0.84796622    -0.82900
C874        C  0.28686429  0.87375589  0.84113708     0.97600
O875        O  0.31999422  0.89898215  0.84339600    -0.83000
O876        O  0.32743751  0.90223787  0.89379729    -0.85600
C877        C  0.32420927  0.90924827  0.91579466     1.02100
O878        O  0.31908953  0.93566367  0.92121850    -0.78400
O879        O  0.24986098  0.91356748  0.90783729    -0.78500
C880        C  0.22240731  0.90030984  0.89419471     1.02000
Cr881      Cr  0.26989394  0.92981509  0.84940182     1.93700
Cr882      Cr  0.34210781  0.93987546  0.86828986     1.93200
Cr883      Cr  0.29551319  0.95880004  0.90138426     1.39100
O884        O  0.30215574  0.94255828  0.87314238    -1.23600
O885        O  0.24340006  0.78072591  0.30948754    -0.85900
O886        O  0.29836446  0.82004867  0.34309582    -0.82900
C887        C  0.33039390  0.84420928  0.34958221     0.97600
O888        O  0.34605009  0.87603975  0.34022989    -0.83000
O889        O  0.37297518  0.87128926  0.29490463    -0.85600
C890        C  0.37105763  0.85881505  0.27357369     1.02100
O891        O  0.34222024  0.84743256  0.26146066    -0.78400
O892        O  0.28518592  0.78533960  0.28390779    -0.78600
C893        C  0.25982222  0.76638612  0.29911742     1.02100
O894        O  0.23297949  0.84250096  0.30350536    -0.85900
O895        O  0.28016074  0.87620664  0.34257983    -0.82900
C896        C  0.29368167  0.90840868  0.33472788     0.97600
O897        O  0.31719566  0.91909819  0.31772252    -0.83000
O898        O  0.34758471  0.91590184  0.27436090    -0.85600
C899        C  0.32550608  0.90923397  0.25707344     1.02100
O900        O  0.29708028  0.87787162  0.25481745    -0.78400
O901        O  0.23771462  0.81364488  0.27176933    -0.78500
C902        C  0.22287365  0.82942433  0.28227076     1.02000
Cr903      Cr  0.26620433  0.83139832  0.32291107     1.93700
Cr904      Cr  0.34259486  0.89240182  0.30652174     1.93200
Cr905      Cr  0.29121523  0.83235082  0.27033050     1.39100
O906        O  0.30052378  0.85217634  0.29990442    -1.23600
O907        O  0.04323324  0.78581275  0.19292856    -0.85900
O908        O  0.03173251  0.82603787  0.15888666    -0.82900
C909        C  0.02311405  0.84931025  0.15218921     0.97600
O910        O  0.03768623  0.88076237  0.16202729    -0.83000
O911        O  0.00409999  0.87309453  0.20659317    -0.85600
C912        C  0.49845211  0.86508209  0.22811012     1.02100
O913        O  0.01280218  0.85352179  0.24143128    -0.78400
O914        O  0.00570545  0.79086501  0.21830186    -0.78600
C915        C  0.01240329  0.77175263  0.20356898     1.02100
O916        O  0.11702544  0.84709084  0.20130555    -0.85900
O917        O  0.10770280  0.88314050  0.16193833    -0.82900
C918        C  0.12351896  0.91573280  0.16959957     0.97600
O919        O  0.10821263  0.92468438  0.18572059    -0.83000
O920        O  0.07481195  0.91938550  0.22913618    -0.85600
C921        C  0.09240887  0.91305825  0.24528328     1.02100
O922        O  0.08851041  0.88145284  0.24719505    -0.78400
O923        O  0.08002341  0.81594162  0.23092069    -0.78500
C924        C  0.11201348  0.83246431  0.22221837     1.02000
Cr925      Cr  0.07399576  0.83705333  0.18037944     1.93700
Cr926      Cr  0.05633364  0.89641926  0.19620741     1.93200
Cr927      Cr  0.04737143  0.83678827  0.23223588     1.39100
O928        O  0.05897060  0.85692099  0.20278691    -1.23600
O929        O  0.29027909  0.52073837  0.15620495    -0.85900
O930        O  0.34787274  0.54702495  0.18659892    -0.82900
C931        C  0.35790614  0.52329129  0.18605114     0.97600
O932        O  0.37586611  0.52178158  0.16808436    -0.83000
O933        O  0.39172202  0.51842132  0.12005902    -0.85600
C934        C  0.36543939  0.99369977  0.11330922     1.02100
O935        O  0.33688014  0.99586697  0.11317602    -0.78400
O936        O  0.28578060  0.52071403  0.11644921    -0.78600
C937        C  0.27143913  0.50893552  0.13727344     1.02100
O938        O  0.31716534  0.59260621  0.13374847    -0.85900
O939        O  0.37685540  0.61830573  0.16249196    -0.82900
C940        C  0.40742233  0.62491461  0.17016117     0.97600
O941        O  0.41676250  0.60087211  0.16762717    -0.83000
O942        O  0.42634633  0.59768828  0.11756742    -0.85600
C943        C  0.41896360  0.59027357  0.09526455     1.02100
O944        O  0.38798411  0.56326833  0.08938342    -0.78400
O945        O  0.34455339  0.59066775  0.09998249    -0.78500
C946        C  0.33053948  0.60509023  0.11269264     1.02000
Cr947      Cr  0.33477541  0.56883324  0.15813654     1.93700
Cr948      Cr  0.39971757  0.55966025  0.14291410     1.93200
Cr949      Cr  0.33912790  0.54320645  0.10646229     1.39100
O950        O  0.35778838  0.55724085  0.13596460    -1.23600
O951        O  0.28031957  0.74360777  0.03121513    -0.85900
O952        O  0.32307846  0.79701222  0.99807118    -0.82900
C953        C  0.34844434  0.82825059  0.99126761     0.97600
O954        O  0.37947111  0.84353391  0.00159469    -0.83000
O955        O  0.37192387  0.86923677  0.04626020    -0.85600
C956        C  0.36189723  0.86859448  0.06807504     1.02100
O957        O  0.35023113  0.84001094  0.08078745    -0.78400
O958        O  0.28667806  0.78590121  0.05722179    -0.78600
C959        C  0.26726048  0.76095292  0.04200023     1.02100
O960        O  0.33891817  0.72845045  0.03869422    -0.85900
O961        O  0.37737325  0.77553130  0.00041188    -0.82900
C962        C  0.40970613  0.79043827  0.00839492     0.97600
O963        O  0.41912883  0.81318026  0.02555715    -0.83000
O964        O  0.41456162  0.84169026  0.06898013    -0.85600
C965        C  0.40718468  0.81705167  0.08489490     1.02100
O966        O  0.37502666  0.78960599  0.08641411    -0.78400
O967        O  0.30861839  0.73382077  0.06933102    -0.78500
C968        C  0.32311652  0.71748127  0.05918826     1.02000
Cr969      Cr  0.33145403  0.76351874  0.01879519     1.93700
Cr970      Cr  0.39310140  0.83876976  0.03590974     1.93200
Cr971      Cr  0.33146172  0.78808160  0.07124594     1.39100
O972        O  0.35212439  0.79717661  0.04189220    -1.23600
O973        O  0.25797071  0.71403305  0.81211907    -0.85900
O974        O  0.20316577  0.67186471  0.84480090    -0.82900
C975        C  0.17108625  0.64778936  0.85124553     0.97600
O976        O  0.15519112  0.61656594  0.84095923    -0.83000
O977        O  0.13035756  0.62646183  0.79707540    -0.85600
C978        C  0.13200320  0.63953963  0.77609392     1.02100
O979        O  0.16025963  0.65046113  0.76299668    -0.78400
O980        O  0.21679343  0.71082829  0.78670901    -0.78600
C981        C  0.24176316  0.72881650  0.80217648     1.02100
O982        O  0.26949177  0.65350983  0.80296801    -0.85900
O983        O  0.22147702  0.61536321  0.84095761    -0.82900
C984        C  0.20728547  0.58383352  0.83167084     0.97600
O985        O  0.18376886  0.57511757  0.81509971    -0.83000
O986        O  0.15476982  0.58226190  0.77264969    -0.85600
C987        C  0.17811637  0.58954825  0.75576553     1.02100
O988        O  0.20682638  0.62094479  0.75455345    -0.78400
O989        O  0.26525284  0.68490574  0.77279449    -0.78500
C990        C  0.28076486  0.66941256  0.78253493     1.02000
Cr991      Cr  0.23556428  0.66223219  0.82351888     1.93700
Cr992      Cr  0.15929401  0.60314157  0.80619134     1.93200
Cr993      Cr  0.21152713  0.66525054  0.77147670     1.39100
O994        O  0.20174423  0.64342221  0.80041322    -1.23600
O995        O  0.47144337  0.70329099  0.68103848    -0.85900
O996        O  0.44992443  0.64412226  0.65188257    -0.82900
C997        C  0.47619685  0.63761745  0.65260415     0.97600
O998        O  0.48003965  0.62115238  0.67049754    -0.83000
O999        O  0.48427277  0.60555549  0.71863007    -0.85600
C1000       C  0.01163557  0.64033042  0.72732172     1.02100
O1001       O  0.00830240  0.66824621  0.72703634    -0.78400
O1002       O  0.47670152  0.70860608  0.72079668    -0.78600
C1003       C  0.48415761  0.72284064  0.69970723     1.02100
O1004       O  0.40032547  0.67026854  0.70510117    -0.85900
O1005       O  0.37868785  0.61009091  0.67645368    -0.82900
C1006       C  0.37571807  0.58096132  0.66835274     0.97600
O1007       O  0.40183535  0.57476849  0.67090216    -0.83000
O1008       O  0.40564722  0.56744179  0.72152215    -0.85600
C1009       C  0.41368715  0.57640818  0.74367079     1.02100
O1010       O  0.43970949  0.60828137  0.74877104    -0.78400
O1011       O  0.40933324  0.64916269  0.73951655    -0.78500
C1012       C  0.39168805  0.65988125  0.72717118     1.02000
Cr1013     Cr  0.42622922  0.65535537  0.68033166     1.93700
Cr1014     Cr  0.44271591  0.59514557  0.69572691     1.93200
Cr1015     Cr  0.45713668  0.65617749  0.73133203     1.39100
O1016       O  0.44184383  0.63572810  0.70237248    -1.23600
O1017       O  0.47931664  0.76749846  0.49113056    -0.85900
O1018       O  0.45355931  0.80247664  0.51878111    -0.82900
C1019       C  0.47884719  0.83592166  0.51684412     0.97600
O1020       O  0.48103847  0.85389577  0.49793250    -0.83000
O1021       O  0.48099973  0.86840923  0.44904164    -0.85600
C1022       C  0.00627037  0.86499147  0.44204148     1.02100
O1023       O  0.00554018  0.83495359  0.44350901    -0.78400
O1024       O  0.48254478  0.76229526  0.45152062    -0.78600
C1025       C  0.49161182  0.75895040  0.47296600     1.02100
O1026       O  0.40834452  0.72026674  0.46943972    -0.85900
O1027       O  0.38241474  0.75771757  0.49506670    -0.82900
C1028       C  0.37736174  0.78295294  0.50241878     0.97600
O1029       O  0.40256585  0.81590020  0.49958517    -0.83000
O1030       O  0.40279421  0.82222962  0.44898736    -0.85600
C1031       C  0.40930127  0.81962843  0.42675615     1.02100
O1032       O  0.43616042  0.81548378  0.42082385    -0.78400
O1033       O  0.41248680  0.74529434  0.43346688    -0.78500
C1034       C  0.39892908  0.71773238  0.44718052     1.02000
Cr1035     Cr  0.43169424  0.76437516  0.49185826     1.93700
Cr1036     Cr  0.44190038  0.83712303  0.47356459     1.93200
Cr1037     Cr  0.45862323  0.79034306  0.43934372     1.39100
O1038       O  0.44391613  0.79692906  0.46824192    -1.23600
O1039       O  0.24029001  0.52523252  0.34927968    -0.85900
O1040       O  0.20477966  0.54887297  0.32125407    -0.82900
C1041       C  0.17126875  0.52322129  0.32083802     0.97600
O1042       O  0.14977964  0.51823605  0.33843636    -0.83000
O1043       O  0.12704409  0.51281865  0.38658183    -0.85600
C1044       C  0.12987164  0.98515573  0.39096368     1.02100
O1045       O  0.16036303  0.98700974  0.39015618    -0.78400
O1046       O  0.23269924  0.51093960  0.38818041    -0.78600
C1047       C  0.24252607  0.50759046  0.36685615     1.02100
O1048       O  0.27827862  0.59355145  0.37624131    -0.85900
O1049       O  0.24224114  0.61895269  0.34831784    -0.82900
C1050       C  0.21709334  0.62265553  0.33927635     0.97600
O1051       O  0.18456208  0.59601783  0.34014777    -0.83000
O1052       O  0.17208644  0.59065294  0.39060839    -0.85600
C1053       C  0.17207559  0.58200903  0.41270598     1.02100
O1054       O  0.17559315  0.55464308  0.41826842    -0.78400
O1055       O  0.24692727  0.57821819  0.41055669    -0.78500
C1056       C  0.27636246  0.59740594  0.39920625     1.02000
Cr1057     Cr  0.23856031  0.57050399  0.35048998     1.93700
Cr1058     Cr  0.16149202  0.55442137  0.36444550     1.93200
Cr1059     Cr  0.20336987  0.53391964  0.40002453     1.39100
O1060       O  0.20167751  0.55314086  0.37167871    -1.23600
O1061       O  0.20851359  0.96910584  0.65883917    -0.85900
O1062       O  0.14874294  0.94777594  0.68639914    -0.82900
C1063       C  0.14334025  0.97484031  0.68522416     0.97600
O1064       O  0.12736005  0.97887856  0.66714290    -0.83000
O1065       O  0.10950135  0.97989973  0.61881525    -0.85600
C1066       C  0.13897867  0.50599590  0.60903883     1.02100
O1067       O  0.16799068  0.00518919  0.61270229    -0.78400
O1068       O  0.21726779  0.98188050  0.61981276    -0.78600
C1069       C  0.22932858  0.98722887  0.64154011     1.02100
O1070       O  0.17789519  0.89884666  0.63426740    -0.85900
O1071       O  0.11593221  0.87659186  0.66075894    -0.82900
C1072       C  0.08737839  0.87372840  0.66980788     0.97600
O1073       O  0.08184414  0.90035950  0.66829634    -0.83000
O1074       O  0.07525411  0.90241821  0.61773860    -0.85600
C1075       C  0.08415110  0.90909263  0.59545781     1.02100
O1076       O  0.11607776  0.93524728  0.58947107    -0.78400
O1077       O  0.16303321  0.91218039  0.59890439    -0.78500
C1078       C  0.17111049  0.89273101  0.61160964     1.02000
Cr1079     Cr  0.16130389  0.92417565  0.65832982     1.93700
Cr1080     Cr  0.10164655  0.94036010  0.64264478     1.93200
Cr1081     Cr  0.16468087  0.95755794  0.60748235     1.34300
O1082       O  0.14288868  0.94051337  0.63606452    -1.23600
O1083       O  0.21790770  0.75275307  0.52729790    -0.85900
O1084       O  0.17522268  0.69959497  0.49399221    -0.82900
C1085       C  0.15030183  0.66817009  0.48720163     0.97600
O1086       O  0.11878860  0.65381833  0.49707622    -0.83000
O1087       O  0.12743081  0.62688446  0.54048319    -0.85600
C1088       C  0.13822319  0.62701377  0.56189643     1.02100
O1089       O  0.14850812  0.65457747  0.57546524    -0.78400
O1090       O  0.21197416  0.71061111  0.55322096    -0.78600
C1091       C  0.23150103  0.73624450  0.53839624     1.02100
O1092       O  0.15976682  0.76792038  0.53602359    -0.85900
O1093       O  0.12064440  0.72119247  0.49771268    -0.82900
C1094       C  0.08827761  0.70609108  0.50601454     0.97600
O1095       O  0.07897975  0.68303109  0.52303360    -0.83000
O1096       O  0.08391221  0.65209326  0.56539199    -0.85600
C1097       C  0.09095729  0.67597939  0.58178959     1.02100
O1098       O  0.12267122  0.70396116  0.58303092    -0.78400
O1099       O  0.18879928  0.76106435  0.56659943    -0.78500
C1100       C  0.17537826  0.77836869  0.55656119     1.02000
Cr1101     Cr  0.16681515  0.73291845  0.51535096     1.93700
Cr1102     Cr  0.10539201  0.65713942  0.53185614     1.93200
Cr1103     Cr  0.16656006  0.70682580  0.56735138     1.39100
O1104       O  0.14619958  0.69870274  0.53812467    -1.23600
C1105       C  0.11987020  0.58257983  0.59550236    -0.20800
C1106       C  0.13662528  0.59428402  0.57247657    -0.07400
C1107       C  0.15333767  0.57631447  0.56130452     0.13500
C1108       C  0.15470260  0.54833828  0.57411562    -0.20900
C1109       C  0.13820476  0.53684699  0.59726384    -0.07400
C1110       C  0.11969331  0.55350597  0.60782518     0.13500
C1111       C  0.10053204  0.54147619  0.63226759    -0.24200
H1112       H  0.10668199  0.59626437  0.60384266     0.14700
H1113       H  0.16801227  0.53477546  0.56578689     0.14800
C1114       C  0.17040173  0.58705228  0.53626518    -0.24200
H1115       H  0.08927038  0.55895682  0.63825720     0.05000
H1116       H  0.12010745  0.54317930  0.64637165     0.08200
H1117       H  0.07720701  0.51289784  0.63109918     0.08200
H1118       H  0.19185673  0.61631283  0.53630659     0.08200
H1119       H  0.14920080  0.58250812  0.52260871     0.08200
H1120       H  0.18325152  0.57085990  0.53059421     0.05000
C1121       C  0.20380976  0.86017782  0.59888031    -0.20800
C1122       C  0.17176642  0.86219890  0.59895442    -0.07400
C1123       C  0.14158293  0.83726752  0.58453622     0.13500
C1124       C  0.14432522  0.81128763  0.57022532    -0.20900
C1125       C  0.17629672  0.80921932  0.56996919    -0.07400
C1126       C  0.20653432  0.83397710  0.58452116     0.13500
C1127       C  0.24215598  0.83387152  0.58434513    -0.24200
H1128       H  0.22706922  0.87978473  0.60955623     0.14700
H1129       H  0.12093255  0.79179927  0.55958402     0.14800
C1130       C  0.10596211  0.83737297  0.58451558    -0.24200
H1131       H  0.26358768  0.85691976  0.59519501     0.05000
H1132       H  0.25247889  0.83667609  0.56529274     0.08200
H1133       H  0.23816512  0.80807704  0.59246152     0.08200
H1134       H  0.11010102  0.86293791  0.57597527     0.08200
H1135       H  0.09577517  0.83517127  0.60354804     0.08200
H1136       H  0.08438502  0.81408475  0.57390887     0.05000
C1137       C  0.19391066  0.63998864  0.43581779    -0.20800
C1138       C  0.16661036  0.60336801  0.43207563    -0.07400
C1139       C  0.13416915  0.58830482  0.44615062     0.13500
C1140       C  0.12971197  0.61028797  0.46356817    -0.20900
C1141       C  0.15716557  0.64711946  0.46775167    -0.07400
C1142       C  0.19018963  0.66180862  0.45382058     0.13500
C1143       C  0.22190629  0.70017453  0.45765760    -0.24200
H1144       H  0.21863116  0.65145168  0.42473678     0.14700
H1145       H  0.10448582  0.59828378  0.47411347     0.14800
C1146       C  0.10375875  0.54931237  0.44229637    -0.24200
H1147       H  0.24513548  0.70676495  0.44503494     0.05000
H1148       H  0.23238269  0.70308970  0.47658599     0.08200
H1149       H  0.21306280  0.72041816  0.45427994     0.08200
H1150       H  0.11382902  0.53014818  0.44611276     0.08200
H1151       H  0.09416705  0.54569762  0.42310030     0.08200
H1152       H  0.07991497  0.54192505  0.45450562     0.05000
C1153       C  0.99846620  0.83765216  0.56088918    -0.20800
C1154       C  0.50571247  0.85440582  0.53696732    -0.07400
C1155       C  0.04022613  0.88511417  0.53274663     0.13500
C1156       C  0.06474897  0.90207271  0.55207838    -0.20900
C1157       C  0.05675766  0.88797339  0.57596261    -0.07400
C1158       C  0.02318463  0.85470523  0.58029086     0.13500
C1159       C  0.01294456  0.83650732  0.60507456    -0.24200
H1160       H  0.46816377  0.81864598  0.56446645     0.14700
H1161       H  0.09042944  0.92709989  0.54841745     0.14800
C1162       C  0.05204785  0.90211379  0.50763410    -0.24200
H1163       H  0.98671252  0.80989684  0.60461761     0.05000
H1164       H  0.00934879  0.85432109  0.61835334     0.08200
H1165       H  0.03452422  0.83095947  0.61150763     0.08200
H1166       H  0.54085962  0.91082226  0.49909786     0.08200
H1167       H  0.05096503  0.88154434  0.49448880     0.08200
H1168       H  0.08059948  0.92571328  0.50749552     0.05000
C1169       C  0.06805912  0.89336787  0.42288101    -0.20800
C1170       C  0.03760112  0.89662523  0.42933384    -0.07400
C1171       C  0.03716278  0.92863087  0.42206244     0.13500
C1172       C  0.06699062  0.95602157  0.40877149    -0.20900
C1173       C  0.09775707  0.95305138  0.40273231    -0.07400
C1174       C  0.09797610  0.92083669  0.40978557     0.13500
C1175       C  0.12918901  0.91448560  0.40358870    -0.24200
H1176       H  0.06863294  0.86897656  0.42817205     0.14700
H1177       H  0.06638662  0.98033013  0.40335838     0.14800
C1178       C  0.00557390  0.93450412  0.42790102    -0.24200
H1179       H  0.12329511  0.88680452  0.40928384     0.05000
H1180       H  0.15293456  0.43430750  0.41557787     0.08200
H1181       H  0.13401004  0.91668795  0.38352809     0.08200
H1182       H  0.51652821  0.93774166  0.45876818     0.08200
H1183       H  0.98000963  0.91244379  0.41951229     0.08200
H1184       H  0.01019810  0.96106064  0.42066925     0.05000
C1185       C  0.34344900  0.64195006  0.40205856    -0.20800
C1186       C  0.30876777  0.62495397  0.41334679    -0.07400
C1187       C  0.30581369  0.63539410  0.43777003     0.13500
C1188       C  0.33673376  0.66410843  0.44903230    -0.20900
C1189       C  0.37038559  0.68268778  0.43687779    -0.07400
C1190       C  0.37429085  0.67056110  0.41354661     0.13500
C1191       C  0.41104150  0.68744339  0.40081959    -0.24200
H1192       H  0.34639926  0.63336054  0.38392648     0.14700
H1193       H  0.33416380  0.67354297  0.46698646     0.14800
C1194       C  0.27036714  0.61779785  0.45221550    -0.24200
H1195       H  0.40955043  0.67292430  0.38354284     0.05000
H1196       H  0.43119641  0.68585587  0.41291625     0.08200
H1197       H  0.42097038  0.71649968  0.39614520     0.08200
H1198       H  0.26045448  0.58823368  0.45506101     0.08200
H1199       H  0.24945328  0.62131846  0.44249098     0.08200
H1200       H  0.27369751  0.63029130  0.47059491     0.05000
C1201       C  0.50336954  0.71753160  0.49751258    -0.20800
C1202       C  0.01554909  0.74209249  0.47858573    -0.07400
C1203       C  0.05224298  0.75900279  0.47054790     0.13500
C1204       C  0.07485063  0.74587023  0.47916122    -0.20900
C1205       C  0.06175410  0.71626017  0.49581688    -0.07400
C1206       C  0.02419423  0.69840194  0.50291607     0.13500
C1207       C  0.51162108  0.67870689  0.52798211    -0.24200
H1208       H  0.47772181  0.70975114  0.50683488     0.14700
H1209       H  0.10331055  0.75971882  0.47338980     0.14800
C1210       C  0.06800031  0.79193760  0.45392051    -0.24200
H1211       H  0.48454409  0.67363045  0.53460050     0.05000
H1212       H  0.53125798  0.69155753  0.54324088     0.08200
H1213       H  0.01034601  0.64324085  0.51210822     0.08200
H1214       H  0.06557950  0.81432023  0.46271855     0.08200
H1215       H  0.05287767  0.78445199  0.43637439     0.08200
H1216       H  0.09742714  0.80245295  0.44979937     0.05000
C1217       C  0.31934061  0.73660786  0.52249245    -0.20800
C1218       C  0.34205048  0.77317255  0.51476618    -0.07400
C1219       C  0.32943686  0.79825193  0.51792326     0.13500
C1220       C  0.29410514  0.78556792  0.52741686    -0.20900
C1221       C  0.27061068  0.74850679  0.53354223    -0.07400
C1222       C  0.28379143  0.72391112  0.53153866     0.13500
C1223       C  0.25964446  0.68372942  0.53689634    -0.24200
H1224       H  0.32884778  0.71725736  0.52053929     0.14700
H1225       H  0.28413474  0.80458521  0.52917982     0.14800
C1226       C  0.35200555  0.83800139  0.51050271    -0.24200
H1227       H  0.27398034  0.66817765  0.53359249     0.05000
H1228       H  0.23558677  0.67254388  0.52462832     0.08200
H1229       H  0.25059185  0.67959486  0.55630097     0.08200
H1230       H  0.35865309  0.84011895  0.49070049     0.08200
H1231       H  0.37763918  0.85178425  0.52131825     0.08200
H1232       H  0.33715481  0.85305188  0.51378750     0.05000
C1233       C  0.03763840  0.68434662  0.63617553    -0.20800
C1234       C  0.50400113  0.65011681  0.63297002    -0.07400
C1235       C  0.49511312  0.64071869  0.60822257     0.13500
C1236       C  0.02664564  0.63784912  0.59696025    -0.20900
C1237       C  0.06142811  0.66969105  0.59974286    -0.07400
C1238       C  0.06663732  0.69363554  0.61959047     0.13500
C1239       C  0.10249340  0.72859709  0.62396787    -0.24200
H1240       H  0.04178821  0.70180938  0.65180733     0.14700
H1241       H  0.02185643  0.61935445  0.58188197     0.14800
C1242       C  0.45582372  0.61961648  0.59994574    -0.24200
H1243       H  0.10113029  0.74359848  0.64025664     0.05000
H1244       H  0.10951832  0.74717420  0.60798702     0.08200
H1245       H  0.12460345  0.72226571  0.62721120     0.08200
H1246       H  0.44230069  0.63583238  0.60359698     0.08200
H1247       H  0.44094786  0.59312778  0.60992894     0.08200
H1248       H  0.45380005  0.61365222  0.58004849     0.05000
C1249       C  0.02350537  0.82272164  0.67536225    -0.20800
C1250       C  0.06051046  0.83889704  0.68176210    -0.07400
C1251       C  0.07159162  0.81995886  0.69774553     0.13500
C1252       C  0.04588230  0.78417604  0.70534083    -0.20900
C1253       C  0.00969780  0.76680299  0.69700267    -0.07400
C1254       C  0.49604938  0.78376044  0.68355834     0.13500
C1255       C  0.45627187  0.76780499  0.67696786    -0.24200
H1256       H  0.01493348  0.83751987  0.66354218     0.14700
H1257       H  0.05456197  0.76895122  0.71665441     0.14800
C1258       C  0.11042926  0.83728867  0.70687785    -0.24200
H1259       H  0.45133476  0.78833049  0.66780873     0.05000
H1260       H  0.43911475  0.75829545  0.69379870     0.08200
H1261       H  0.44750175  0.74433932  0.66430483     0.08200
H1262       H  0.11832752  0.86382715  0.71586431     0.08200
H1263       H  0.12954536  0.84191769  0.69152130     0.08200
H1264       H  0.11353051  0.81952963  0.72043808     0.05000
C1265       C  0.28850726  0.49390359  0.64994042    -0.20800
C1266       C  0.27114600  0.50815685  0.63556491    -0.07400
C1267       C  0.29006201  0.54582176  0.62982106     0.13500
C1268       C  0.32510746  0.56867107  0.63976446    -0.20900
C1269       C  0.34153960  0.55471585  0.65542496    -0.07400
C1270       C  0.32328523  0.51662902  0.66005584     0.13500
C1271       C  0.33885241  0.50014412  0.67719050    -0.24200
H1272       H  0.27361671  0.46497756  0.65458496     0.14700
H1273       H  0.33917491  0.59787291  0.63607227     0.14800
C1274       C  0.29406641  0.01845077  0.60555457    -0.24200
H1275       H  0.32006984  0.47018467  0.67959723     0.05000
H1276       H  0.34333254  0.51319759  0.69544346     0.08200
H1277       H  0.36521880  0.50433034  0.66983713     0.08200
H1278       H  0.27712464  0.02840279  0.59673883     0.08200
H1279       H  0.28062069  0.98825118  0.60345398     0.08200
H1280       H  0.32087884  0.03112991  0.59583234     0.05000
C1281       C  0.19968034  0.55616502  0.72855637    -0.20800
C1282       C  0.17075990  0.56058931  0.73724386    -0.07400
C1283       C  0.13486870  0.53650435  0.72851093     0.13500
C1284       C  0.13580834  0.99166743  0.72730199    -0.20900
C1285       C  0.15500034  0.00208865  0.70512327    -0.07400
C1286       C  0.19366983  0.52833097  0.71167458     0.13500
C1287       C  0.22676263  0.52691820  0.70294195    -0.24200
H1288       H  0.22725456  0.57447451  0.73508911     0.14700
H1289       H  0.11500419  0.96313028  0.72997894     0.14800
C1290       C  0.10257550  0.54037811  0.73599711    -0.24200
H1291       H  0.24063600  0.52291249  0.71880500     0.05000
H1292       H  0.24627251  0.55315495  0.69376215     0.08200
H1293       H  0.21988959  0.50448150  0.68994767     0.08200
H1294       H  0.10868476  0.56878050  0.73240555     0.08200
H1295       H  0.09631408  0.53371694  0.75566434     0.08200
H1296       H  0.10005392  0.97382739  0.76830752     0.05000
C1297       C  0.03589451  0.61259080  0.75564016    -0.20800
C1298       C  0.04315758  0.64157288  0.73974870    -0.07400
C1299       C  0.07949197  0.67100812  0.73702077     0.13500
C1300       C  0.10773827  0.67009393  0.74980652    -0.20900
C1301       C  0.10049707  0.64093034  0.76563973    -0.07400
C1302       C  0.06394625  0.61198645  0.76877792     0.13500
C1303       C  0.05430738  0.57971330  0.78520161    -0.24200
H1304       H  0.00787193  0.59032246  0.75798279     0.14700
H1305       H  0.13578977  0.69219576  0.74727257     0.14800
C1306       C  0.08881406  0.70266368  0.72005398    -0.24200
H1307       H  0.02456497  0.55905102  0.78466147     0.05000
H1308       H  0.06128043  0.58909690  0.80440289     0.08200
H1309       H  0.06957423  0.56600493  0.77932922     0.08200
H1310       H  0.07555538  0.71806477  0.72655550     0.08200
H1311       H  0.07924952  0.69228480  0.70129255     0.08200
H1312       H  0.11883379  0.72220222  0.71917406     0.05000
C1313       C  0.36130876  0.69418808  0.73978447    -0.20800
C1314       C  0.36159718  0.66126341  0.73974281    -0.07400
C1315       C  0.33576512  0.63139159  0.75417703     0.13500
C1316       C  0.31072529  0.63553507  0.76868072    -0.20900
C1317       C  0.31055527  0.66855081  0.76896927    -0.07400
C1318       C  0.33609373  0.69830416  0.75424345     0.13500
C1319       C  0.33785808  0.73484617  0.75424653    -0.24200
H1320       H  0.38160044  0.71709358  0.72901443     0.14700
H1321       H  0.29049992  0.61250588  0.77940616     0.14800
C1322       C  0.33374101  0.59469522  0.75388123    -0.24200
H1323       H  0.36148569  0.75565202  0.74332139     0.05000
H1324       H  0.34096416  0.74525874  0.77324650     0.08200
H1325       H  0.31266360  0.73213701  0.74607624     0.08200
H1326       H  0.35880774  0.59709875  0.76200971     0.08200
H1327       H  0.33070972  0.58458909  0.73479986     0.08200
H1328       H  0.30998973  0.57377552  0.76466270     0.05000
C1329       C  0.38222613  0.94530050  0.11283225    -0.20800
C1330       C  0.36486286  0.96202701  0.10141070    -0.07400
C1331       C  0.34816750  0.94902752  0.07830460     0.13500
C1332       C  0.34861421  0.91914776  0.06752221    -0.20900
C1333       C  0.36455756  0.90148056  0.07942248    -0.07400
C1334       C  0.38194468  0.91486851  0.10226286     0.13500
C1335       C  0.40108613  0.89783533  0.11525784    -0.24200
H1336       H  0.39550230  0.95571479  0.13028306     0.14700
H1337       H  0.33565103  0.90891218  0.04996110     0.14800
C1338       C  0.33064270  0.96703383  0.06452465    -0.24200
H1339       H  0.41475318  0.91298060  0.13220730     0.05000
H1340       H  0.42239055  0.89817973  0.10310590     0.08200
H1341       H  0.38103681  0.86916573  0.12056160     0.08200
H1342       H  0.35078490  0.99664383  0.06192321     0.08200
H1343       H  0.30634084  0.96366886  0.07469923     0.08200
H1344       H  0.32112391  0.95466407  0.04617192     0.05000
C1345       C  0.35763391  0.69028721  0.07592143    -0.20800
C1346       C  0.32359180  0.68757298  0.07251222    -0.07400
C1347       C  0.29206032  0.65924637  0.08433825     0.13500
C1348       C  0.29525622  0.63356181  0.09871011    -0.20900
C1349       C  0.32922233  0.63595746  0.10165296    -0.07400
C1350       C  0.36099383  0.66518722  0.09067299     0.13500
C1351       C  0.39867128  0.67060877  0.09498345    -0.24200
H1352       H  0.38191855  0.71287956  0.06760433     0.14700
H1353       H  0.27102104  0.61079475  0.10691573     0.14800
C1354       C  0.25480931  0.65502578  0.08103169    -0.24200
H1355       H  0.42053020  0.69648659  0.08661533     0.05000
H1356       H  0.40088958  0.64782959  0.08678843     0.08200
H1357       H  0.40396777  0.67189953  0.11492648     0.08200
H1358       H  0.24814795  0.65231000  0.06128624     0.08200
H1359       H  0.25442648  0.67911742  0.08870466     0.08200
H1360       H  0.23302335  0.63025442  0.09050741     0.05000
C1361       C  0.46165670  0.80608059  0.13713325    -0.20800
C1362       C  0.99462375  0.83958208  0.13318159    -0.07400
C1363       C  0.00026893  0.86259284  0.11299179     0.13500
C1364       C  0.47266312  0.85219030  0.09772760    -0.20900
C1365       C  0.43715551  0.82192395  0.10182075    -0.07400
C1366       C  0.43193122  0.79812078  0.12173137     0.13500
C1367       C  0.39530059  0.76474291  0.12743205    -0.24200
H1368       H  0.45746081  0.78851118  0.15270863     0.14700
H1369       H  0.47762541  0.87020825  0.08231939     0.14800
C1370       C  0.03738035  0.89567762  0.10779174    -0.24200
H1371       H  0.38625597  0.74556539  0.11174976     0.05000
H1372       H  0.37472283  0.77301994  0.13140343     0.08200
H1373       H  0.39656472  0.74965072  0.14365378     0.08200
H1374       H  0.05819929  0.88715395  0.10605719     0.08200
H1375       H  0.04526556  0.91596434  0.12277009     0.08200
H1376       H  0.03754041  0.90952743  0.09051982     0.05000
C1377       C  0.46833174  0.66958950  0.18761261    -0.20800
C1378       C  0.43246513  0.66102087  0.18207899    -0.07400
C1379       C  0.42196142  0.68746633  0.18765644     0.13500
C1380       C  0.44814050  0.72197652  0.19695079    -0.20900
C1381       C  0.48453209  0.73118312  0.20067463    -0.07400
C1382       C  0.49441142  0.70411548  0.19672753     0.13500
C1383       C  0.53239582  0.71115509  0.20221873    -0.24200
H1384       H  0.47653990  0.64952536  0.18408182     0.14700
H1385       H  0.94101711  0.74505091  0.19679579     0.14800
C1386       C  0.38358425  0.68032777  0.18371907    -0.24200
H1387       H  0.53401519  0.68583584  0.20045087     0.05000
H1388       H  0.53997417  0.72128458  0.22124343     0.08200
H1389       H  0.55271485  0.73150306  0.18923858     0.08200
H1390       H  0.36362479  0.65560743  0.19413973     0.08200
H1391       H  0.37690724  0.67663060  0.16395028     0.08200
H1392       H  0.88131703  0.70694510  0.18543280     0.05000
C1393       C  0.17299874  0.93651177  0.13755813    -0.20800
C1394       C  0.16063943  0.94320501  0.15998074    -0.07400
C1395       C  0.18510043  0.97475983  0.17357853     0.13500
C1396       C  0.22081670  0.99754119  0.16485692    -0.20900
C1397       C  0.23381201  0.98987259  0.14322608    -0.07400
C1398       C  0.20925817  0.95949797  0.12900635     0.13500
C1399       C  0.22150292  0.95039127  0.10548264    -0.24200
H1400       H  0.15447145  0.91266675  0.12691587     0.14700
H1401       H  0.21947676  0.52568680  0.14376302     0.14800
C1402       C  0.17496716  0.98411629  0.19798427    -0.24200
H1403       H  0.19904847  0.92524429  0.09692158     0.05000
H1404       H  0.24469436  0.94577468  0.10902588     0.08200
H1405       H  0.23038693  0.97334536  0.09231120     0.08200
H1406       H  0.16680776  0.96115585  0.21106323     0.08200
H1407       H  0.15224636  0.98980708  0.19569873     0.08200
H1408       H  0.19823538  0.00894935  0.20626449     0.05000
C1409       C  0.11010469  0.97257969  0.26540276    -0.20800
C1410       C  0.11633758  0.94303732  0.26258464    -0.07400
C1411       C  0.14504235  0.94333320  0.27620175     0.13500
C1412       C  0.16503873  0.97189447  0.29294989    -0.20900
C1413       C  0.15623915  0.49842883  0.29964525    -0.07400
C1414       C  0.12967795  0.00060256  0.28241222     0.13500
C1415       C  0.12128812  0.52964663  0.28645250    -0.24200
H1416       H  0.08891837  0.97327780  0.25481029     0.14700
H1417       H  0.18589287  0.97143116  0.30412585     0.14800
C1418       C  0.15496302  0.91391398  0.27339394    -0.24200
H1419       H  0.09955057  0.02786956  0.27235469     0.05000
H1420       H  0.14664547  0.55645303  0.28324849     0.08200
H1421       H  0.11027894  0.52960231  0.30492789     0.08200
H1422       H  0.16158713  0.91200850  0.25396817     0.08200
H1423       H  0.13187195  0.88716177  0.27968531     0.08200
H1424       H  0.17926736  0.91978823  0.28447908     0.05000
C1425       C  0.33149679  0.81857962  0.39043471    -0.20800
C1426       C  0.35002205  0.83612766  0.36878235    -0.07400
C1427       C  0.38745228  0.84662007  0.36606173     0.13500
C1428       C  0.40551713  0.84047349  0.38523732    -0.20900
C1429       C  0.38752848  0.82417731  0.40725899    -0.07400
C1430       C  0.34978442  0.81269974  0.40980806     0.13500
C1431       C  0.32835388  0.79362128  0.43257518    -0.24200
H1432       H  0.30278730  0.81023163  0.39242614     0.14700
H1433       H  0.43424471  0.84895287  0.38307831     0.14800
C1434       C  0.40842075  0.86300074  0.34266575    -0.24200
H1435       H  0.29883968  0.78470015  0.43077577     0.05000
H1436       H  0.33910284  0.81249278  0.44841473     0.08200
H1437       H  0.33040995  0.76888900  0.43619729     0.08200
H1438       H  0.41049885  0.88975406  0.33892563     0.08200
H1439       H  0.39442620  0.84364455  0.32741258     0.08200
H1440       H  0.43685151  0.86803053  0.34351512     0.05000
C1441       C  0.30587045  0.94414290  0.23061650    -0.20800
C1442       C  0.33418435  0.93919154  0.23943784    -0.07400
C1443       C  0.37081563  0.96387628  0.23192225     0.13500
C1444       C  0.37797412  0.99262735  0.21595070    -0.20900
C1445       C  0.34947669  0.49670208  0.20634754    -0.07400
C1446       C  0.31318017  0.97293922  0.21440358     0.13500
C1447       C  0.28822002  0.49206396  0.21671702    -0.24200
H1448       H  0.27789201  0.92529963  0.23634209     0.14700
H1449       H  0.40588700  0.01101238  0.20982818     0.14800
C1450       C  0.40254406  0.95934141  0.23966885    -0.24200
H1451       H  0.26380976  0.47606824  0.22863184     0.05000
H1452       H  0.27866490  0.48761712  0.19753369     0.08200
H1453       H  0.30043287  0.52143416  0.22160215     0.08200
H1454       H  0.39670714  0.93126358  0.23518199     0.08200
H1455       H  0.40742144  0.96436152  0.25956479     0.08200
H1456       H  0.42844142  0.97910722  0.23020145     0.05000
C1457       C  0.43779317  0.87977762  0.27263064    -0.20800
C1458       C  0.40322215  0.85925226  0.26170425    -0.07400
C1459       C  0.40070630  0.84144364  0.23895622     0.13500
C1460       C  0.43256969  0.84525163  0.22797496    -0.20900
C1461       C  0.46670371  0.86548712  0.23910006    -0.07400
C1462       C  0.46942973  0.88299011  0.26171385     0.13500
C1463       C  0.00581784  0.91849752  0.26528202    -0.24200
H1464       H  0.44027301  0.89384050  0.28971507     0.14700
H1465       H  0.43073161  0.83143833  0.21086130     0.14800
C1466       C  0.36481366  0.81760952  0.22604549    -0.24200
H1467       H  0.00471345  0.93633063  0.27978965     0.05000
H1468       H  0.01985793  0.93587447  0.24908228     0.08200
H1469       H  0.02215585  0.90662468  0.27230597     0.08200
H1470       H  0.35303337  0.83441913  0.21979329     0.08200
H1471       H  0.34533745  0.79545116  0.23848247     0.08200
H1472       H  0.36829761  0.80427307  0.20955283     0.05000
C1473       C  0.20411351  0.84700135  0.24456958    -0.20800
C1474       C  0.19493092  0.83301497  0.26852158    -0.07400
C1475       C  0.15913596  0.82030224  0.27734586     0.13500
C1476       C  0.13330670  0.82093126  0.26171922    -0.20900
C1477       C  0.14200604  0.83399484  0.23738647    -0.07400
C1478       C  0.17846557  0.84830421  0.22902972     0.13500
C1479       C  0.19080259  0.86476467  0.20390919    -0.24200
H1480       H  0.23164848  0.85672676  0.23783793     0.14700
H1481       H  0.10580679  0.81063935  0.26878884     0.14800
C1482       C  0.14649226  0.80435396  0.30257676    -0.24200
H1483       H  0.22029602  0.87449624  0.20064920     0.05000
H1484       H  0.18702326  0.88877746  0.20187440     0.08200
H1485       H  0.17482357  0.84395397  0.18976338     0.08200
H1486       H  0.16787573  0.80312646  0.31337231     0.08200
H1487       H  0.12293624  0.77591977  0.30104943     0.08200
H1488       H  0.13750448  0.82114503  0.31284525     0.05000
C1489       C  0.26076440  0.67869239  0.31555140    -0.20800
C1490       C  0.22620385  0.65780501  0.32693042    -0.07400
C1491       C  0.20182502  0.67150423  0.32679591     0.13500
C1492       C  0.21312067  0.70591968  0.31623803    -0.20900
C1493       C  0.24823348  0.72761568  0.30573247    -0.07400
C1494       C  0.27202565  0.71319928  0.30487472     0.13500
C1495       C  0.30974482  0.73439569  0.29360872    -0.24200
H1496       H  0.27936246  0.66810909  0.31525676     0.14700
H1497       H  0.19448488  0.71644943  0.31683654     0.14800
C1498       C  0.16448263  0.65103639  0.33875962    -0.24200
H1499       H  0.32472365  0.71916176  0.29481961     0.05000
H1500       H  0.32618151  0.76092553  0.30324939     0.08200
H1501       H  0.30751849  0.73949395  0.27396750     0.08200
H1502       H  0.16729565  0.64577726  0.35828129     0.08200
H1503       H  0.14708300  0.62467722  0.32917438     0.08200
H1504       H  0.15001410  0.66681233  0.33807427     0.05000
C1505       C  0.30475438  0.97146230  0.34261996    -0.20800
C1506       C  0.28174596  0.93339344  0.34544616    -0.07400
C1507       C  0.24712831  0.92018943  0.35731212     0.13500
C1508       C  0.23629765  0.94517330  0.36497529    -0.20900
C1509       C  0.25873403  0.98286844  0.36103267    -0.07400
C1510       C  0.29086339  0.49627551  0.34867162     0.13500
C1511       C  0.31534906  0.53650104  0.34296524    -0.24200
H1512       H  0.33139651  0.98196581  0.33403113     0.14700
H1513       H  0.20941496  0.93511234  0.37311583     0.14800
C1514       C  0.22042661  0.87985754  0.36111290    -0.24200
H1515       H  0.34141104  0.54217801  0.33408747     0.05000
H1516       H  0.32227900  0.55268934  0.36011679     0.08200
H1517       H  0.30145718  0.54592320  0.33025527     0.08200
H1518       H  0.23256867  0.86790294  0.37329909     0.08200
H1519       H  0.21321277  0.86547366  0.34326457     0.08200
H1520       H  0.19450350  0.87487133  0.36985112     0.05000
C1521       C  0.36810875  0.51279876  0.75770701    -0.20800
C1522       C  0.39403104  0.54936842  0.76375199    -0.07400
C1523       C  0.40057479  0.55911931  0.78889802     0.13500
C1524       C  0.38844137  0.03675634  0.81034956    -0.20900
C1525       C  0.35976195  0.00176349  0.80384465    -0.07400
C1526       C  0.34894508  0.48605096  0.77583752     0.13500
C1527       C  0.32235409  0.44720611  0.76821807    -0.24200
H1528       H  0.36288807  0.50489544  0.73865741     0.14700
H1529       H  0.39558983  0.04284320  0.82946358     0.14800
C1530       C  0.42716689  0.59753093  0.79757571    -0.24200
H1531       H  0.32174634  0.44394020  0.74804483     0.05000
H1532       H  0.29421905  0.43925449  0.77433915     0.08200
H1533       H  0.33045792  0.42832659  0.77637448     0.08200
H1534       H  0.41914084  0.61697365  0.79033460     0.08200
H1535       H  0.45546691  0.60573407  0.79164770     0.08200
H1536       H  0.44141263  0.10120188  0.82216260     0.05000
C1537       C  0.23772981  0.56464477  0.86270883    -0.20800
C1538       C  0.21916457  0.55781469  0.84022231    -0.07400
C1539       C  0.21520048  0.52821028  0.82570501     0.13500
C1540       C  0.24622795  0.02043033  0.83396605    -0.20900
C1541       C  0.24827704  0.51356381  0.85642696    -0.07400
C1542       C  0.25233930  0.54306303  0.87094681     0.13500
C1543       C  0.27322578  0.55292380  0.89460372    -0.24200
H1544       H  0.24132464  0.58741994  0.87385719     0.14700
H1545       H  0.25360199  0.00653663  0.82040935     0.14800
C1546       C  0.22716197  0.04429337  0.79852552    -0.24200
H1547       H  0.27530386  0.57785402  0.90297166     0.05000
H1548       H  0.30149982  0.55839478  0.89124323     0.08200
H1549       H  0.25905471  0.53014253  0.90792580     0.08200
H1550       H  0.24184776  0.07348836  0.79281560     0.08200
H1551       H  0.19777201  0.03161891  0.79384479     0.08200
H1552       H  0.23852347  0.02997992  0.78775356     0.05000
C1553       C  0.24068907  0.81535191  0.82108285    -0.20800
C1554       C  0.27681066  0.83773203  0.82963266    -0.07400
C1555       C  0.30163458  0.82460107  0.82749312     0.13500
C1556       C  0.28957286  0.78984615  0.81726443    -0.20900
C1557       C  0.25331712  0.76723314  0.80922735    -0.07400
C1558       C  0.22859592  0.78038088  0.81106700     0.13500
C1559       C  0.18902904  0.75715574  0.80364154    -0.24200
H1560       H  0.22140978  0.82503607  0.82254531     0.14700
H1561       H  0.30861808  0.77982948  0.81602344     0.14800
C1562       C  0.34049077  0.84608781  0.83670575    -0.24200
H1563       H  0.17330546  0.77125963  0.80716762     0.05000
H1564       H  0.17578087  0.73111142  0.81419721     0.08200
H1565       H  0.18732940  0.75106726  0.78379393     0.08200
H1566       H  0.35521203  0.83069397  0.83451379     0.08200
H1567       H  0.34042531  0.85208770  0.85647143     0.08200
H1568       H  0.35609401  0.87203497  0.82624547     0.05000
C1569       C  0.36066191  0.88461926  0.93412571    -0.20800
C1570       C  0.32930755  0.88796144  0.93521834    -0.07400
C1571       C  0.30337795  0.87013518  0.95416013     0.13500
C1572       C  0.30983494  0.84991082  0.97181330    -0.20900
C1573       C  0.34188836  0.84766581  0.97119524    -0.07400
C1574       C  0.36749777  0.86503588  0.95197546     0.13500
C1575       C  0.40157142  0.86222644  0.94978774    -0.24200
H1576       H  0.38024307  0.89794327  0.91936586     0.14700
H1577       H  0.29012738  0.83640750  0.98648014     0.14800
C1578       C  0.26848438  0.87151439  0.95539585    -0.24200
H1579       H  0.41726790  0.87554510  0.93283345     0.05000
H1580       H  0.39393025  0.83294066  0.94932854     0.08200
H1581       H  0.41997677  0.87602793  0.96548184     0.08200
H1582       H  0.25268765  0.86022122  0.93829291     0.08200
H1583       H  0.27496313  0.90024124  0.95781266     0.08200
H1584       H  0.25080119  0.85516503  0.97094693     0.05000
C1585       C  0.00565406  0.66399921  0.06040791    -0.20800
C1586       C  0.99875374  0.64879005  0.03680989    -0.07400
C1587       C  0.46117112  0.61616751  0.03176853     0.13500
C1588       C  0.43716257  0.59889561  0.05145447    -0.20900
C1589       C  0.44640828  0.61158339  0.07558269    -0.07400
C1590       C  0.48087682  0.64376082  0.07978490     0.13500
C1591       C  0.49240296  0.66048840  0.10483993    -0.24200
H1592       H  0.03090947  0.68954641  0.06370514     0.14700
H1593       H  0.41072960  0.57486505  0.04779071     0.14800
C1594       C  0.44777998  0.60112588  0.00643608    -0.24200
H1595       H  0.01595679  0.69168045  0.10413403     0.05000
H1596       H  0.49451092  0.64099589  0.11733758     0.08200
H1597       H  0.47221020  0.66758076  0.11215686     0.08200
H1598       H  0.46392920  0.58934787  0.99874934     0.08200
H1599       H  0.44996811  0.62320197  0.99431385     0.08200
H1600       H  0.41860649  0.57879770  0.00653589     0.05000
C1601       C  0.14827113  0.68775262  0.90715229    -0.20800
C1602       C  0.11005658  0.67173410  0.90504092    -0.07400
C1603       C  0.09203028  0.64699186  0.88561419     0.13500
C1604       C  0.11268667  0.63947800  0.86873803    -0.20900
C1605       C  0.15106859  0.65610321  0.87051108    -0.07400
C1606       C  0.16901467  0.68057670  0.89014099     0.13500
C1607       C  0.20982579  0.69846327  0.89382987    -0.24200
H1608       H  0.16207711  0.70623779  0.92224236     0.14700
H1609       H  0.09868980  0.62070621  0.85381690     0.14800
C1610       C  0.05089713  0.62728917  0.88305395    -0.24200
H1611       H  0.21870021  0.71467125  0.91099073     0.05000
H1612       H  0.22472330  0.71755495  0.87852082     0.08200
H1613       H  0.21774402  0.67715084  0.89491591     0.08200
H1614       H  0.04183931  0.64733441  0.87958696     0.08200
H1615       H  0.03763417  0.61162937  0.90001457     0.08200
H1616       H  0.04129484  0.60762023  0.86757443     0.05000
C1617       C  0.45230963  0.56472457  0.93606259    -0.20800
C1618       C  0.45872862  0.59985377  0.93033204    -0.07400
C1619       C  0.43609113  0.60345047  0.91276159     0.13500
C1620       C  0.40756638  0.57192613  0.90190870    -0.20900
C1621       C  0.40127772  0.53697422  0.90766392    -0.07400
C1622       C  0.42385455  0.53322797  0.92503577     0.13500
C1623       C  0.44354963  0.00920600  0.91047967    -0.24200
H1624       H  0.46949460  0.56184013  0.94944228     0.14700
H1625       H  0.39010171  0.57455802  0.88861463     0.14800
C1626       C  0.44212174  0.64018644  0.90460258    -0.24200
H1627       H  0.43644284  0.49842361  0.94743227     0.05000
H1628       H  0.44191634  0.00466404  0.89042576     0.08200
H1629       H  0.42304297  0.98381248  0.92005820     0.08200
H1630       H  0.95314243  0.65963651  0.91024228     0.08200
H1631       H  0.43726972  0.65413852  0.92009856     0.08200
H1632       H  0.42303049  0.63745657  0.88979838     0.05000
C1633       C  0.12976318  0.81588660  0.90545927    -0.20800
C1634       C  0.12683007  0.81714449  0.93113136    -0.07400
C1635       C  0.15201561  0.84944725  0.94356735     0.13500
C1636       C  0.18165138  0.87731978  0.93047293    -0.20900
C1637       C  0.18661318  0.87399845  0.90529647    -0.07400
C1638       C  0.15939628  0.84356276  0.89243237     0.13500
C1639       C  0.16242526  0.83862017  0.86537186    -0.24200
H1640       H  0.10969438  0.79199774  0.89548012     0.14700
H1641       H  0.20201086  0.90135618  0.94021262     0.14800
C1642       C  0.14868767  0.85462689  0.97051239    -0.24200
H1643       H  0.16274854  0.86142982  0.85514514     0.05000
H1644       H  0.13894498  0.81257985  0.85855574     0.08200
H1645       H  0.18786396  0.83796227  0.86140791     0.08200
H1646       H  0.15041759  0.83328725  0.98108091     0.08200
H1647       H  0.12206628  0.85294747  0.97436112     0.08200
H1648       H  0.17088239  0.88173109  0.97699397     0.05000
C1649       C  0.49229446  0.77785447  0.99900315    -0.20800
C1650       C  0.48162023  0.75467704  0.97854505    -0.07400
C1651       C  0.44849282  0.74548471  0.96677087     0.13500
C1652       C  0.42630696  0.75869022  0.97637156    -0.20900
C1653       C  0.43620089  0.78056958  0.99767072    -0.07400
C1654       C  0.47021093  0.79060862  0.00889614     0.13500
C1655       C  0.48340298  0.81355541  0.03183548    -0.24200
H1656       H  0.01176965  0.77588995  0.01345913     0.14700
H1657       H  0.40053573  0.75093042  0.96752074     0.14800
C1658       C  0.43552578  0.72027856  0.94503197    -0.24200
H1659       H  0.99723890  0.80005427  0.04573272     0.05000
H1660       H  0.94945022  0.78477035  0.04871901     0.08200
H1661       H  0.48702261  0.84107256  0.02843075     0.08200
H1662       H  0.43257200  0.69353583  0.95018883     0.08200
H1663       H  0.45558051  0.73261684  0.92978726     0.08200
H1664       H  0.40854064  0.71514042  0.93841968     0.05000
C1665       C  0.16777575  0.70741503  0.02222688    -0.20800
C1666       C  0.16263091  0.73532677  0.01268003    -0.07400
C1667       C  0.19123323  0.77245429  0.01587666     0.13500
C1668       C  0.22408577  0.78007109  0.02736389    -0.20900
C1669       C  0.22961570  0.75190042  0.03549880    -0.07400
C1670       C  0.20072183  0.71514032  0.03339373     0.13500
C1671       C  0.20426818  0.68377967  0.04312515    -0.24200
H1672       H  0.14609328  0.67906590  0.02057427     0.14700
H1673       H  0.24644070  0.80819086  0.02879647     0.14800
C1674       C  0.18833937  0.80447229  0.00676988    -0.24200
H1675       H  0.17825566  0.65714268  0.04145538     0.05000
H1676       H  0.21153752  0.68841197  0.06277283     0.08200
H1677       H  0.22558224  0.68139828  0.03277375     0.08200
H1678       H  0.16491447  0.80469587  0.01586471     0.08200
H1679       H  0.18479931  0.80258809  0.98663200     0.08200
H1680       H  0.21334502  0.83114322  0.01082698     0.05000
O1681       O  0.52269913  0.23274150  0.99324645    -0.85900
O1682       O  0.55267813  0.20175654  0.01956087    -0.82900
C1683       C  0.52808997  0.16788929  0.01826893     0.97600
O1684       O  0.52626779  0.14969118  0.99962281    -0.83000
O1685       O  0.52191839  0.13299831  0.95119316    -0.85600
C1686       C  0.99142407  0.13221256  0.94506173     1.02100
O1687       O  0.99266057  0.16247217  0.94578110    -0.78400
O1688       O  0.51631642  0.23735439  0.95422020    -0.78600
C1689       C  0.50824408  0.24042902  0.97615042     1.02100
O1690       O  0.59113176  0.28196464  0.96774348    -0.85900
O1691       O  0.62188389  0.24824744  0.99268461    -0.82900
C1692       C  0.62879638  0.22438986  0.00008417     0.97600
O1693       O  0.60464005  0.19082430  0.99780729    -0.83000
O1694       O  0.59977138  0.18189883  0.94746925    -0.85600
C1695       C  0.59051479  0.18168832  0.92557263     1.02100
O1696       O  0.56261970  0.18464315  0.92087610    -0.78400
O1697       O  0.58515181  0.25455598  0.93262705    -0.78500
C1698       C  0.59910113  0.28330947  0.94511405     1.02000
Cr1699     Cr  0.57141445  0.23890309  0.99162251     1.93700
Cr1700     Cr  0.56304127  0.16670534  0.97372123     1.93200
Cr1701     Cr  0.54053433  0.20966153  0.94070253     1.39100
O1702       O  0.55856068  0.20543376  0.96867493    -1.23600
O1703       O  0.77259676  0.47827275  0.84794647    -0.85900
O1704       O  0.80531230  0.44860035  0.82165943    -0.82900
C1705       C  0.83887607  0.47350034  0.82301489     0.97600
O1706       O  0.85652460  0.47707245  0.84232641    -0.83000
O1707       O  0.87143064  0.47898566  0.89148612    -0.85600
C1708       C  0.86877671  0.00557553  0.89958374     1.02100
O1709       O  0.83919196  0.50540026  0.89757168    -0.78400
O1710       O  0.76644367  0.48326138  0.88718835    -0.78600
C1711       C  0.76390402  0.49180433  0.86532706     1.02100
O1712       O  0.72287125  0.40918073  0.87134388    -0.85900
O1713       O  0.75880973  0.37929521  0.84703822    -0.82900
C1714       C  0.78369998  0.37341900  0.83988107     0.97600
O1715       O  0.81687447  0.39817622  0.84285571    -0.83000
O1716       O  0.82464647  0.40149933  0.89345238    -0.85600
C1717       C  0.82183151  0.40878479  0.91546913     1.02100
O1718       O  0.81642112  0.43501058  0.92086809    -0.78400
O1719       O  0.74717992  0.41315607  0.90732679    -0.78500
C1720       C  0.71962160  0.40030434  0.89378659     1.02000
Cr1721     Cr  0.76726736  0.42961376  0.84887144     1.93700
Cr1722     Cr  0.83933505  0.43907476  0.86778542     1.93200
Cr1723     Cr  0.79299719  0.45828004  0.90099840     1.39100
O1724       O  0.79954193  0.44206345  0.87265803    -1.23600
O1725       O  0.74468447  0.28053023  0.30906378    -0.85900
O1726       O  0.79796019  0.32081319  0.34283869    -0.82900
C1727       C  0.82982135  0.34505046  0.34938547     0.97600
O1728       O  0.84533336  0.37696062  0.34007873    -0.83000
O1729       O  0.87232019  0.37314099  0.29477070    -0.85600
C1730       C  0.87115329  0.36213484  0.27312782     1.02100
O1731       O  0.84258020  0.35117481  0.26084337    -0.78400
O1732       O  0.78772329  0.28769921  0.28344673    -0.78600
C1733       C  0.76246376  0.26777961  0.29847523     1.02100
O1734       O  0.73160791  0.34093683  0.30304879    -0.85900
O1735       O  0.77785544  0.37576821  0.34212604    -0.82900
C1736       C  0.79181208  0.40823955  0.33462622     0.97600
O1737       O  0.81545016  0.41921844  0.31771997    -0.83000
O1738       O  0.84567925  0.41710188  0.27404214    -0.85600
C1739       C  0.82311880  0.41008300  0.25690730     1.02100
O1740       O  0.79480755  0.37850601  0.25495995    -0.78400
O1741       O  0.73745244  0.31206985  0.27185020    -0.78500
C1742       C  0.72162553  0.32702727  0.28204273     1.02000
Cr1743     Cr  0.76546492  0.33115700  0.32254765     1.93700
Cr1744     Cr  0.84145513  0.39349246  0.30637514     1.93200
Cr1745     Cr  0.79122920  0.33360715  0.27005663     1.39100
O1746       O  0.79986256  0.35294065  0.29969871    -1.23600
O1747       O  0.54132274  0.28508327  0.19579670    -0.85900
O1748       O  0.52952648  0.32490072  0.16141703    -0.82900
C1749       C  0.52296726  0.34933867  0.15405067     0.97600
O1750       O  0.53987227  0.38134302  0.16303062    -0.83000
O1751       O  0.50693919  0.37665461  0.20740257    -0.85600
C1752       C  0.99796910  0.36473142  0.23014658     1.02100
O1753       O  0.51476783  0.35722742  0.24263674    -0.78400
O1754       O  0.50536247  0.29233574  0.22139076    -0.78600
C1755       C  0.51140617  0.27193570  0.20744537     1.02100
O1756       O  0.61550951  0.34482597  0.20219659    -0.85900
O1757       O  0.60594267  0.38009127  0.16237288    -0.82900
C1758       C  0.62344031  0.41308309  0.16923516     0.97600
O1759       O  0.61073080  0.42331113  0.18633967    -0.83000
O1760       O  0.57771104  0.42147790  0.22945593    -0.85600
C1761       C  0.59471108  0.41505674  0.24593013     1.02100
O1762       O  0.59029422  0.38331182  0.24826575    -0.78400
O1763       O  0.57943420  0.31648771  0.23301407    -0.78500
C1764       C  0.61075373  0.33098524  0.22334131     1.02000
Cr1765     Cr  0.57228753  0.33539034  0.18204406     1.93700
Cr1766     Cr  0.55882962  0.39762519  0.19696245     1.93200
Cr1767     Cr  0.54805932  0.33862948  0.23409227     1.39100
O1768       O  0.55938848  0.35729209  0.20427175    -1.23600
O1769       O  0.79028020  0.02111381  0.15484071    -0.85900
O1770       O  0.84629997  0.04573704  0.18624586    -0.82900
C1771       C  0.85647818  0.02208222  0.18577302     0.97600
O1772       O  0.87535427  0.02121677  0.16816775    -0.83000
O1773       O  0.89281541  0.01877297  0.12039119    -0.85600
C1774       C  0.86375923  0.49373518  0.11076387     1.02100
O1775       O  0.83490156  0.49526939  0.11044608    -0.78400
O1776       O  0.78736475  0.02187924  0.11503200    -0.78600
C1777       C  0.77221268  0.00967610  0.13559211     1.02100
O1778       O  0.81897913  0.09377458  0.13285628    -0.85900
O1779       O  0.87703256  0.11794989  0.16281578    -0.82900
C1780       C  0.90746084  0.12460735  0.17075805     0.97600
O1781       O  0.91676119  0.10048908  0.16853314    -0.83000
O1782       O  0.92778231  0.09817624  0.11865948    -0.85600
C1783       C  0.92112013  0.09118295  0.09626016     1.02100
O1784       O  0.89049523  0.06409583  0.08992322    -0.78400
O1785       O  0.84722006  0.09178478  0.09954814    -0.78500
C1786       C  0.83306001  0.10635310  0.11192783     1.02000
Cr1787     Cr  0.83492939  0.06885167  0.15762519     1.93700
Cr1788     Cr  0.90023540  0.05963026  0.14349013     1.93200
Cr1789     Cr  0.84106818  0.04409573  0.10607509     1.39100
O1790       O  0.85863716  0.05752215  0.13587941    -1.23600
O1791       O  0.78283016  0.24442255  0.03039097    -0.85900
O1792       O  0.82510207  0.29871268  0.99757920    -0.82900
C1793       C  0.85035136  0.33003073  0.99077298     0.97600
O1794       O  0.88161905  0.34488909  0.00082721    -0.83000
O1795       O  0.87363073  0.37045940  0.04514177    -0.85600
C1796       C  0.86305957  0.36979686  0.06677316     1.02100
O1797       O  0.85132633  0.34138421  0.07969748    -0.78400
O1798       O  0.78844489  0.28661262  0.05615472    -0.78600
C1799       C  0.76936126  0.26145641  0.04100909     1.02100
O1800       O  0.84174876  0.23024070  0.03776774    -0.85900
O1801       O  0.88005483  0.27798474  0.99968163    -0.82900
C1802       C  0.91172364  0.29163931  0.00857310     0.97600
O1803       O  0.92122167  0.31464732  0.02555522    -0.83000
O1804       O  0.91636610  0.34358210  0.06866183    -0.85600
C1805       C  0.90869482  0.31928910  0.08493100     1.02100
O1806       O  0.87670483  0.29161534  0.08614802    -0.78400
O1807       O  0.81137643  0.23524266  0.06858722    -0.78500
C1808       C  0.82593298  0.21904338  0.05825822     1.02000
Cr1809     Cr  0.83394265  0.26519988  0.01800855     1.93700
Cr1810     Cr  0.89516290  0.34031804  0.03533019     1.93200
Cr1811     Cr  0.83327372  0.28944719  0.07046747     1.39100
O1812       O  0.85426630  0.29867032  0.04123884    -1.23600
O1813       O  0.75650943  0.21577170  0.81159793    -0.85900
O1814       O  0.70393620  0.17558461  0.84602899    -0.82900
C1815       C  0.67263976  0.15121015  0.85344613     0.97600
O1816       O  0.65735735  0.11902339  0.84477601    -0.83000
O1817       O  0.62899518  0.12593106  0.80164989    -0.85600
C1818       C  0.62965987  0.13789389  0.78044675     1.02100
O1819       O  0.65634010  0.14607863  0.76632584    -0.78400
O1820       O  0.71359512  0.20916442  0.78646049    -0.78600
C1821       C  0.73920805  0.22892986  0.80108355     1.02100
O1822       O  0.76973529  0.15631024  0.80473109    -0.85900
O1823       O  0.72352712  0.11979076  0.84382898    -0.82900
C1824       C  0.70990932  0.08797895  0.83505734     0.97600
O1825       O  0.68514662  0.07728399  0.81916479    -0.83000
O1826       O  0.65156847  0.07978335  0.77742517    -0.85600
C1827       C  0.67433364  0.08525694  0.76049015     1.02100
O1828       O  0.70280130  0.11671235  0.75810195    -0.78400
O1829       O  0.76210525  0.18291840  0.77292729    -0.78500
C1830       C  0.77989632  0.17068855  0.78377597     1.02000
Cr1831     Cr  0.73582830  0.16516644  0.82498270     1.93700
Cr1832     Cr  0.65892006  0.10345360  0.81037054     1.93200
Cr1833     Cr  0.70817724  0.16241956  0.77316815     1.39100
O1834       O  0.70073128  0.14358005  0.80285597    -1.23600
O1835       O  0.97565441  0.20951355  0.68399290    -0.85900
O1836       O  0.95118600  0.15029476  0.65485427    -0.82900
C1837       C  0.97556949  0.14102262  0.65403536     0.97600
O1838       O  0.97996160  0.12445262  0.67164469    -0.83000
O1839       O  0.98663455  0.10973286  0.71987584    -0.85600
C1840       C  0.51370351  0.14150832  0.72895706     1.02100
O1841       O  0.51159879  0.17000503  0.72802848    -0.78400
O1842       O  0.98397946  0.21517663  0.72356558    -0.78600
C1843       C  0.99042472  0.22908323  0.70237838     1.02100
O1844       O  0.90593503  0.17840875  0.71009979    -0.85900
O1845       O  0.88122353  0.11787804  0.68213474    -0.82900
C1846       C  0.87575633  0.08752535  0.67464489     0.97600
O1847       O  0.90159651  0.08067611  0.67470594    -0.83000
O1848       O  0.90858821  0.07419304  0.72496071    -0.85600
C1849       C  0.91784754  0.08276742  0.74700282     1.02100
O1850       O  0.94453176  0.11441562  0.75193969    -0.78400
O1851       O  0.91668439  0.15772382  0.74394680    -0.78500
C1852       C  0.89830833  0.16820707  0.73229432     1.02000
Cr1853     Cr  0.92966100  0.16238106  0.68432517     1.93700
Cr1854     Cr  0.94426807  0.10045118  0.69821867     1.93200
Cr1855     Cr  0.96295201  0.16254743  0.73425799     1.39100
O1856       O  0.94564853  0.14207768  0.70548050    -1.23600
O1857       O  0.97681334  0.26721396  0.49237575    -0.85900
O1858       O  0.94850125  0.30034832  0.51929790    -0.82900
C1859       C  0.97345476  0.33385091  0.51716155     0.97600
O1860       O  0.97507686  0.35147576  0.49821000    -0.83000
O1861       O  0.97622105  0.36570209  0.44927743    -0.85600
C1862       C  0.50697367  0.36552017  0.44184616     1.02100
O1863       O  0.50636999  0.33553934  0.44361940    -0.78400
O1864       O  0.98050013  0.26088668  0.45301058    -0.78600
C1865       C  0.98967640  0.25845382  0.47463262     1.02100
O1866       O  0.90657433  0.21795576  0.47021345    -0.85900
O1867       O  0.87812542  0.25362300  0.49494095    -0.82900
C1868       C  0.87176291  0.27838353  0.50136214     0.97600
O1869       O  0.89656493  0.31154138  0.49875639    -0.83000
O1870       O  0.89823527  0.31780362  0.44826039    -0.85600
C1871       C  0.90579675  0.31582817  0.42617748     1.02100
O1872       O  0.93315322  0.31224468  0.42073014    -0.78400
O1873       O  0.91055882  0.24261497  0.43404358    -0.78500
C1874       C  0.89668590  0.21548697  0.44811052     1.02000
Cr1875     Cr  0.92829156  0.26211813  0.49244861     1.93700
Cr1876     Cr  0.93665982  0.33372388  0.47336742     1.93200
Cr1877     Cr  0.95598432  0.28803886  0.44001232     1.39100
O1878       O  0.94013402  0.29428944  0.46858604    -1.23600
O1879       O  0.74230130  0.02489047  0.34804390    -0.85900
O1880       O  0.70751891  0.04844846  0.31892166    -0.82900
C1881       C  0.67370155  0.02365315  0.31825619     0.97600
O1882       O  0.65230567  0.01914636  0.33579003    -0.83000
O1883       O  0.62937934  0.01285592  0.38362860    -0.85600
C1884       C  0.62987397  0.48586722  0.39114293     1.02100
O1885       O  0.66030018  0.48753197  0.39081247    -0.78400
O1886       O  0.73646764  0.01373276  0.38737262    -0.78600
C1887       C  0.74587586  0.00914405  0.36626570     1.02100
O1888       O  0.78019154  0.09385117  0.37423017    -0.85900
O1889       O  0.74500706  0.11892272  0.34561341    -0.82900
C1890       C  0.72014883  0.12328875  0.33678986     0.97600
O1891       O  0.68742349  0.09703612  0.33794038    -0.83000
O1892       O  0.67357052  0.09092209  0.38843822    -0.85600
C1893       C  0.67232681  0.08160391  0.41055496     1.02100
O1894       O  0.67617392  0.05441365  0.41582283    -0.78400
O1895       O  0.74785374  0.08053580  0.40825974    -0.78500
C1896       C  0.77722611  0.09946913  0.39675192     1.02000
Cr1897     Cr  0.74085495  0.07035120  0.34835622     1.93700
Cr1898     Cr  0.66381634  0.05502900  0.36196228     1.93200
Cr1899     Cr  0.70544337  0.03518054  0.39812246     1.39100
O1900       O  0.70380093  0.05361119  0.36942726    -1.23600
O1901       O  0.71242946  0.47396388  0.65335794    -0.85900
O1902       O  0.65565392  0.45219153  0.68427418    -0.82900
C1903       C  0.64584023  0.47624730  0.68475947     0.97600
O1904       O  0.62752410  0.47867030  0.66750969    -0.83000
O1905       O  0.60943099  0.48189365  0.61984104    -0.85600
C1906       C  0.63919380  0.00569266  0.61279790     1.02100
O1907       O  0.66732896  0.50625503  0.60976379    -0.78400
O1908       O  0.71580304  0.48065082  0.61357266    -0.78600
C1909       C  0.73083606  0.48824461  0.63441784     1.02100
O1910       O  0.67982693  0.40242262  0.62947660    -0.85900
O1911       O  0.62170393  0.38018543  0.65902512    -0.82900
C1912       C  0.59255659  0.37503486  0.66846928     0.97600
O1913       O  0.58479404  0.40021845  0.66734105    -0.83000
O1914       O  0.57462386  0.40336108  0.61722368    -0.85600
C1915       C  0.58158220  0.41073386  0.59479476     1.02100
O1916       O  0.61257346  0.43762663  0.58837476    -0.78400
O1917       O  0.65708560  0.41103823  0.59591144    -0.78500
C1918       C  0.66788285  0.39306943  0.60778378     1.02000
Cr1919     Cr  0.66561975  0.42827232  0.65498225     1.93700
Cr1920     Cr  0.60228995  0.44108675  0.64238175     1.93200
Cr1921     Cr  0.66213823  0.45799308  0.60433281     1.34300
O1922       O  0.64380611  0.44278778  0.63402976    -1.23600
O1923       O  0.71141953  0.24851590  0.52593486    -0.85900
O1924       O  0.66952551  0.19553105  0.49227596    -0.82900
C1925       C  0.64555447  0.16334120  0.48602721     0.97600
O1926       O  0.61462820  0.14674362  0.49679843    -0.83000
O1927       O  0.62218339  0.12157187  0.54129385    -0.85600
C1928       C  0.63443065  0.12339936  0.56250409     1.02100
O1929       O  0.64459698  0.15149799  0.57542050    -0.78400
O1930       O  0.70632150  0.20691904  0.55201576    -0.78600
C1931       C  0.72527837  0.23203264  0.53674906     1.02100
O1932       O  0.65211890  0.26250129  0.53472713    -0.85900
O1933       O  0.61429851  0.21526338  0.49621422    -0.82900
C1934       C  0.58208181  0.19952384  0.50457243     0.97600
O1935       O  0.57258865  0.17537497  0.52086315    -0.83000
O1936       O  0.57782673  0.14744956  0.56424035    -0.85600
C1937       C  0.58487396  0.17177861  0.58032802     1.02100
O1938       O  0.61667661  0.19963683  0.58177004    -0.78400
O1939       O  0.68225239  0.25685030  0.56485796    -0.78500
C1940       C  0.66801373  0.27354843  0.55514769     1.02000
Cr1941     Cr  0.66025100  0.22789230  0.51403395     1.93700
Cr1942     Cr  0.59996328  0.15110393  0.53108073     1.93200
Cr1943     Cr  0.66088527  0.20288114  0.56620694     1.39100
O1944       O  0.64027349  0.19351816  0.53695699    -1.23600
C1945       C  0.66936807  0.09809400  0.58208603    -0.20800
C1946       C  0.63572482  0.09226621  0.57338268    -0.07400
C1947       C  0.60345252  0.05868137  0.57816737     0.13500
C1948       C  0.60563421  0.03145714  0.59136878    -0.20900
C1949       C  0.63936300  0.03682601  0.59996925    -0.07400
C1950       C  0.67182155  0.07073710  0.59502797     0.13500
C1951       C  0.70906432  0.07889452  0.60356332    -0.24200
H1952       H  0.69387149  0.12438197  0.57880279     0.14700
H1953       H  0.58065720  0.00565111  0.59483345     0.14800
C1954       C  0.56650459  0.05206115  0.57023907    -0.24200
H1955       H  0.73072875  0.10745458  0.59916159     0.05000
H1956       H  0.71681490  0.06036380  0.59435557     0.08200
H1957       H  0.70873286  0.07539292  0.62367812     0.08200
H1958       H  0.56582433  0.05378483  0.55002759     0.08200
H1959       H  0.56126575  0.07296271  0.57855865     0.08200
H1960       H  0.54396837  0.02456796  0.57595796     0.05000
C1961       C  0.69533141  0.35414048  0.59894511    -0.20800
C1962       C  0.66688678  0.36136171  0.59522292    -0.07400
C1963       C  0.63862494  0.33923956  0.57842081     0.13500
C1964       C  0.64066285  0.31192470  0.56509543    -0.20900
C1965       C  0.66942276  0.30502407  0.56844950    -0.07400
C1966       C  0.69697458  0.32624123  0.58595769     0.13500
C1967       C  0.72877418  0.32046488  0.59088835    -0.24200
H1968       H  0.71678003  0.37087946  0.61181652     0.14700
H1969       H  0.61896138  0.29507598  0.55239863     0.14800
C1970       C  0.60530946  0.34308829  0.57496240    -0.24200
H1971       H  0.74888163  0.34138852  0.60361196     0.05000
H1972       H  0.74342910  0.32237329  0.57354646     0.08200
H1973       H  0.71884010  0.29330981  0.59955868     0.08200
H1974       H  0.61315838  0.36951426  0.56590391     0.08200
H1975       H  0.59219818  0.34143015  0.59293879     0.08200
H1976       H  0.58443659  0.32102982  0.56320507     0.05000
C1977       C  0.67864690  0.13977349  0.42695084    -0.20800
C1978       C  0.66552289  0.10210044  0.43025627    -0.07400
C1979       C  0.64601435  0.08507732  0.45207516     0.13500
C1980       C  0.63988914  0.10589489  0.46954465    -0.20900
C1981       C  0.65339148  0.14359991  0.46638808    -0.07400
C1982       C  0.67340511  0.16081128  0.44482209     0.13500
C1983       C  0.68848966  0.20106196  0.44017143    -0.24200
H1984       H  0.69366110  0.15304732  0.41036922     0.14700
H1985       H  0.62475012  0.09261425  0.48609680     0.14800
C1986       C  0.63052546  0.04478507  0.45696697    -0.24200
H1987       H  0.70183112  0.20954321  0.42191364     0.05000
H1988       H  0.70946282  0.21755836  0.45406782     0.08200
H1989       H  0.66595119  0.20729632  0.44095352     0.08200
H1990       H  0.65306015  0.03871479  0.45866001     0.08200
H1991       H  0.61203600  0.02849233  0.44189136     0.08200
H1992       H  0.61438063  0.03586837  0.47424067     0.05000
C1993       C  0.49416295  0.34020646  0.56090333    -0.20800
C1994       C  0.00100645  0.35275056  0.53685584    -0.07400
C1995       C  0.53831096  0.38394646  0.53190176     0.13500
C1996       C  0.56264936  0.40142724  0.55123322    -0.20900
C1997       C  0.55358692  0.38939202  0.57555806    -0.07400
C1998       C  0.51882821  0.35772395  0.58033996     0.13500
C1999       C  0.50725604  0.34180496  0.60566486    -0.24200
H2000       H  0.96598745  0.31556849  0.56481834     0.14700
H2001       H  0.58924228  0.42503798  0.54711874     0.14800
C2002       C  0.55153538  0.39829435  0.50633659    -0.24200
H2003       H  0.47969517  0.31667433  0.60575384     0.05000
H2004       H  0.50591572  0.36201265  0.61795498     0.08200
H2005       H  0.52698957  0.33419529  0.61292183     0.08200
H2006       H  0.03283159  0.40997329  0.49905493     0.08200
H2007       H  0.54892181  0.37580569  0.49442348     0.08200
H2008       H  0.58080744  0.42036905  0.50599489     0.05000
C2009       C  0.56484719  0.39118369  0.41771910    -0.20800
C2010       C  0.53812897  0.39698866  0.42893105    -0.07400
C2011       C  0.54087060  0.43168014  0.42611744     0.13500
C2012       C  0.57024910  0.45923517  0.41271390    -0.20900
C2013       C  0.59746293  0.45372514  0.40223234    -0.07400
C2014       C  0.59432715  0.41887733  0.40442724     0.13500
C2015       C  0.62126213  0.41010546  0.39246303    -0.24200
H2016       H  0.56272063  0.36462862  0.41924333     0.14700
H2017       H  0.57240932  0.48577265  0.41093938     0.14800
C2018       C  0.51352436  0.44058045  0.43720952    -0.24200
H2019       H  0.61259157  0.38065633  0.39439150     0.05000
H2020       H  0.65021918  0.92595165  0.40164382     0.08200
H2021       H  0.62344890  0.41646372  0.37262368     0.08200
H2022       H  0.99870824  0.43327227  0.44776659     0.08200
H2023       H  0.48604457  0.42283392  0.42910350     0.08200
H2024       H  0.52107909  0.46945419  0.43373338     0.05000
C2025       C  0.84328279  0.13332543  0.40776780    -0.20800
C2026       C  0.80807160  0.12842305  0.41059742    -0.07400
C2027       C  0.80215222  0.15022101  0.42773064     0.13500
C2028       C  0.83154668  0.17622540  0.44149068    -0.20900
C2029       C  0.86663927  0.18147675  0.43837688    -0.07400
C2030       C  0.87282485  0.15994227  0.42145778     0.13500
C2031       C  0.91062174  0.16547400  0.41776100    -0.24200
H2032       H  0.84763836  0.11637184  0.39487813     0.14700
H2033       H  0.82756948  0.19403299  0.45386137     0.14800
C2034       C  0.76548181  0.14787960  0.43074868    -0.24200
H2035       H  0.91063427  0.14600394  0.40411065     0.05000
H2036       H  0.92085851  0.16111619  0.43534658     0.08200
H2037       H  0.92964488  0.19378266  0.41119165     0.08200
H2038       H  0.74522988  0.12121881  0.43903281     0.08200
H2039       H  0.75558024  0.15115292  0.41270452     0.08200
H2040       H  0.76715852  0.16966876  0.44298784     0.05000
C2041       C  0.00629528  0.22356474  0.50251647    -0.20800
C2042       C  0.51311377  0.24096948  0.47954325    -0.07400
C2043       C  0.53910464  0.24015293  0.46354857     0.13500
C2044       C  0.56036453  0.22525756  0.47188885    -0.20900
C2045       C  0.55604061  0.21076015  0.49567937    -0.07400
C2046       C  0.52920217  0.21060366  0.51131955     0.13500
C2047       C  0.01928284  0.19091071  0.53530899    -0.24200
H2048       H  0.98376732  0.22006452  0.51401768     0.14700
H2049       H  0.58091640  0.22543230  0.45985852     0.14800
C2050       C  0.54544383  0.25582596  0.43810011    -0.24200
H2051       H  0.99624590  0.19167795  0.54459928     0.05000
H2052       H  0.04357996  0.20522388  0.54734302     0.08200
H2053       H  0.51366240  0.16687671  0.53748211     0.08200
H2054       H  0.55347091  0.28519969  0.43893262     0.08200
H2055       H  0.52006065  0.24040207  0.42718025     0.08200
H2056       H  0.56763187  0.25393400  0.42846776     0.05000
C2057       C  0.81252104  0.23143983  0.52017325    -0.20800
C2058       C  0.83550998  0.26805022  0.51251213    -0.07400
C2059       C  0.82266841  0.29305867  0.51499250     0.13500
C2060       C  0.78733189  0.28054719  0.52432543    -0.20900
C2061       C  0.76402634  0.24377413  0.53113616    -0.07400
C2062       C  0.77702346  0.21897843  0.52938570     0.13500
C2063       C  0.75320709  0.17909845  0.53611480    -0.24200
H2064       H  0.82208206  0.21209431  0.51856097     0.14700
H2065       H  0.77737869  0.29961710  0.52574870     0.14800
C2066       C  0.84509292  0.33266798  0.50717412    -0.24200
H2067       H  0.76739585  0.16341150  0.53279689     0.05000
H2068       H  0.72780207  0.16643329  0.52501891     0.08200
H2069       H  0.74598202  0.17661035  0.55582445     0.08200
H2070       H  0.85224411  0.33435580  0.48747552     0.08200
H2071       H  0.87040596  0.34700244  0.51827293     0.08200
H2072       H  0.82991401  0.34753655  0.50976472     0.05000
C2073       C  0.52656290  0.18638836  0.62812769    -0.20800
C2074       C  0.99977247  0.14934021  0.63240126    -0.07400
C2075       C  0.00030211  0.12102364  0.61908707     0.13500
C2076       C  0.52722941  0.12959439  0.60258051    -0.20900
C2077       C  0.55550159  0.16587517  0.59818114    -0.07400
C2078       C  0.55450724  0.19482387  0.61074711     0.13500
C2079       C  0.58239241  0.23456298  0.60597242    -0.24200
H2080       H  0.52648646  0.20826001  0.63848034     0.14700
H2081       H  0.52717911  0.10724605  0.59280801     0.14800
C2082       C  0.97142209  0.08141863  0.62319789    -0.24200
H2083       H  0.57604653  0.25326784  0.61640484     0.05000
H2084       H  0.58265638  0.24080555  0.58625944     0.08200
H2085       H  0.61005917  0.24057640  0.61159575     0.08200
H2086       H  0.94381729  0.07768551  0.62001022     0.08200
H2087       H  0.97286190  0.07309811  0.64218868     0.08200
H2088       H  0.97505928  0.06283139  0.61061962     0.05000
C2089       C  0.53053514  0.32857536  0.68406882    -0.20800
C2090       C  0.56760569  0.33919784  0.68054742    -0.07400
C2091       C  0.57961111  0.31454016  0.68770687     0.13500
C2092       C  0.55409869  0.27993489  0.69707884    -0.20900
C2093       C  0.51703709  0.26891524  0.69914801    -0.07400
C2094       C  0.00300159  0.29048419  0.68710530     0.13500
C2095       C  0.96269514  0.27609602  0.68328329    -0.24200
H2096       H  0.52108296  0.34707790  0.67883305     0.14700
H2097       H  0.56273788  0.26049945  0.70155549     0.14800
C2098       C  0.61894412  0.32361468  0.68530382    -0.24200
H2099       H  0.95771349  0.29709776  0.67492885     0.05000
H2100       H  0.94807742  0.26792762  0.70114256     0.08200
H2101       H  0.95102038  0.25199905  0.67093947     0.08200
H2102       H  0.63730206  0.34954632  0.69508212     0.08200
H2103       H  0.62692480  0.32603711  0.66572755     0.08200
H2104       H  0.62315138  0.30189229  0.69330114     0.05000
C2105       C  0.77271192  0.02599982  0.67294605    -0.20800
C2106       C  0.76642488  0.01189923  0.64897483    -0.07400
C2107       C  0.79708226  0.02225706  0.63341812     0.13500
C2108       C  0.83282130  0.04616101  0.64233063    -0.20900
C2109       C  0.83848791  0.06019051  0.66624925    -0.07400
C2110       C  0.80795208  0.04976451  0.68171094     0.13500
C2111       C  0.81237008  0.06261709  0.70789490    -0.24200
H2112       H  0.74970921  0.01817320  0.68523462     0.14700
H2113       H  0.85637875  0.05444155  0.63047870     0.14800
C2114       C  0.76342868  0.56846125  0.62938667    -0.24200
H2115       H  0.78569078  0.05019588  0.71777532     0.05000
H2116       H  0.82462061  0.09281014  0.70859060     0.08200
H2117       H  0.83026029  0.05471721  0.71769795     0.08200
H2118       H  0.73802037  0.55785244  0.64054896     0.08200
H2119       H  0.75589171  0.56134049  0.60992120     0.08200
H2120       H  0.77901948  0.59881395  0.63101108     0.05000
C2121       C  0.68624956  0.06406227  0.72053859    -0.20800
C2122       C  0.66678604  0.05489149  0.74280856    -0.07400
C2123       C  0.64039930  0.01718931  0.74722048     0.13500
C2124       C  0.62513204  0.50496443  0.71548448    -0.20900
C2125       C  0.65410867  0.50161376  0.70583186    -0.07400
C2126       C  0.67947052  0.03757577  0.70256005     0.13500
C2127       C  0.70052100  0.05077943  0.67882590    -0.24200
H2128       H  0.70632206  0.09247705  0.71666527     0.14700
H2129       H  0.59754543  0.48648318  0.70907253     0.14800
C2130       C  0.61694876  0.00443075  0.77003684    -0.24200
H2131       H  0.73039876  0.06569407  0.68260197     0.05000
H2132       H  0.69348947  0.06985010  0.66971759     0.08200
H2133       H  0.69473766  0.02827025  0.66594594     0.08200
H2134       H  0.59882421  0.01633495  0.77068736     0.08200
H2135       H  0.63429690  0.01257843  0.78656694     0.08200
H2136       H  0.57257608  0.51370949  0.73250218     0.05000
C2137       C  0.53472625  0.11633777  0.76145318    -0.20800
C2138       C  0.54380305  0.14214615  0.74263011    -0.07400
C2139       C  0.58070261  0.16927164  0.73866178     0.13500
C2140       C  0.60788870  0.16837275  0.75256497    -0.20900
C2141       C  0.59911929  0.14139851  0.77059629    -0.07400
C2142       C  0.56191038  0.11597910  0.77583505     0.13500
C2143       C  0.55061999  0.08786620  0.79590693    -0.24200
H2144       H  0.50612211  0.09643768  0.76497929     0.14700
H2145       H  0.63640930  0.18838351  0.74886052     0.14800
C2146       C  0.59165637  0.19820923  0.71916388    -0.24200
H2147       H  0.52033036  0.07016611  0.79721619     0.05000
H2148       H  0.56052399  0.10189097  0.81375919     0.08200
H2149       H  0.56225836  0.06991211  0.79237081     0.08200
H2150       H  0.58013744  0.21602954  0.72350161     0.08200
H2151       H  0.58133371  0.18497587  0.70113136     0.08200
H2152       H  0.62191394  0.21606396  0.71776062     0.05000
C2153       C  0.86055722  0.19681154  0.74055066    -0.20800
C2154       C  0.86801086  0.16877620  0.74550981    -0.07400
C2155       C  0.84726934  0.14233568  0.76383135     0.13500
C2156       C  0.81959391  0.14462073  0.77636495    -0.20900
C2157       C  0.81181096  0.17236241  0.77127966    -0.07400
C2158       C  0.83294014  0.19921773  0.75330778     0.13500
C2159       C  0.82751963  0.23113386  0.74786349    -0.24200
H2160       H  0.87686478  0.21731032  0.72688849     0.14700
H2161       H  0.80339180  0.12404758  0.79000453     0.14800
C2162       C  0.85317118  0.11089219  0.77008471    -0.24200
H2163       H  0.84872310  0.25097217  0.73502136     0.05000
H2164       H  0.82936842  0.24604140  0.76502237     0.08200
H2165       H  0.80049791  0.22135677  0.73917477     0.08200
H2166       H  0.88017918  0.12133607  0.77895583     0.08200
H2167       H  0.85172932  0.09547936  0.75332197     0.08200
H2168       H  0.83206940  0.09123334  0.78306132     0.05000
C2169       C  0.88369339  0.44785124  0.10999337    -0.20800
C2170       C  0.86408842  0.46253321  0.09899271    -0.07400
C2171       C  0.84619024  0.44805672  0.07640320     0.13500
C2172       C  0.84721528  0.41833521  0.06595913    -0.20900
C2173       C  0.86521495  0.40257916  0.07760535    -0.07400
C2174       C  0.88429231  0.41779919  0.09964389     0.13500
C2175       C  0.90611262  0.40310818  0.11191556    -0.24200
H2176       H  0.89809166  0.45957985  0.12693782     0.14700
H2177       H  0.83319250  0.40675351  0.04887526     0.14800
C2178       C  0.82683779  0.46431474  0.06276156    -0.24200
H2179       H  0.92057136  0.41933396  0.12836009     0.05000
H2180       H  0.92705707  0.40429339  0.09900745     0.08200
H2181       H  0.88772417  0.37433806  0.11784060     0.08200
H2182       H  0.84600388  0.49400262  0.05951917     0.08200
H2183       H  0.80265795  0.46040628  0.07335963     0.08200
H2184       H  0.81676157  0.45103777  0.04470196     0.05000
C2185       C  0.85996242  0.19047253  0.07370209    -0.20800
C2186       C  0.82624919  0.18881329  0.07132397    -0.07400
C2187       C  0.79505272  0.16120968  0.08388336     0.13500
C2188       C  0.79835949  0.13565249  0.09832366    -0.20900
C2189       C  0.83204190  0.13720995  0.10048575    -0.07400
C2190       C  0.86346062  0.16542744  0.08843610     0.13500
C2191       C  0.90100412  0.16995400  0.09154701    -0.24200
H2192       H  0.88399041  0.21230720  0.06464428     0.14700
H2193       H  0.77432463  0.11355464  0.10719102     0.14800
C2194       C  0.75788769  0.15740759  0.08118150    -0.24200
H2195       H  0.92271599  0.19540431  0.08264401     0.05000
H2196       H  0.90200122  0.14666712  0.08307550     0.08200
H2197       H  0.90759958  0.17151817  0.11129117     0.08200
H2198       H  0.75049902  0.15423607  0.06155176     0.08200
H2199       H  0.75805193  0.18181713  0.08877165     0.08200
H2200       H  0.73627852  0.13299008  0.09105755     0.05000
C2201       C  0.96268195  0.30652014  0.13676630    -0.20800
C2202       C  0.49438948  0.34044858  0.13528819    -0.07400
C2203       C  0.49810557  0.36592073  0.11717743     0.13500
C2204       C  0.97201765  0.35764497  0.10122432    -0.20900
C2205       C  0.93795737  0.32472976  0.10273361    -0.07400
C2206       C  0.93348078  0.29866752  0.12087886     0.13500
C2207       C  0.89824155  0.26265665  0.12402306    -0.24200
H2208       H  0.95899350  0.28686255  0.15083368     0.14700
H2209       H  0.97625306  0.37779158  0.08742355     0.14800
C2210       C  0.53313452  0.40223178  0.11396464    -0.24200
H2211       H  0.89189664  0.24659005  0.10692308     0.05000
H2212       H  0.87552976  0.26758408  0.12876678     0.08200
H2213       H  0.90006665  0.24579234  0.13888086     0.08200
H2214       H  0.55662398  0.39766777  0.11155410     0.08200
H2215       H  0.53781461  0.41999692  0.13007724     0.08200
H2216       H  0.53216475  0.41734658  0.09766866     0.05000
C2217       C  0.96652235  0.16819212  0.19124090    -0.20800
C2218       C  0.93214249  0.16085527  0.18272608    -0.07400
C2219       C  0.92268426  0.18871503  0.18543998     0.13500
C2220       C  0.94828953  0.22293421  0.19534540    -0.20900
C2221       C  0.98327030  0.23070984  0.20222643    -0.07400
C2222       C  0.99218089  0.20266259  0.20078228     0.13500
C2223       C  0.02867072  0.20878814  0.20946301    -0.24200
H2224       H  0.97390759  0.14717172  0.18983906     0.14700
H2225       H  0.44004971  0.24391445  0.20032476     0.14800
C2226       C  0.88626720  0.18367165  0.17749593    -0.24200
H2227       H  0.02993881  0.18319960  0.20868454     0.05000
H2228       H  0.03315844  0.21840930  0.22870993     0.08200
H2229       H  0.05124682  0.22938164  0.19780780     0.08200
H2230       H  0.86358675  0.16029290  0.18750193     0.08200
H2231       H  0.88291400  0.17894188  0.15746900     0.08200
H2232       H  0.38098964  0.20459663  0.18857422     0.05000
C2233       C  0.67659477  0.42543404  0.14220895    -0.20800
C2234       C  0.65929749  0.43936097  0.15740125    -0.07400
C2235       C  0.67757122  0.47777078  0.16168987     0.13500
C2236       C  0.71283923  0.50026230  0.15206119    -0.20900
C2237       C  0.73077384  0.48590524  0.13840739    -0.07400
C2238       C  0.71223994  0.44825726  0.13283601     0.13500
C2239       C  0.73078141  0.43197941  0.11817762    -0.24200
H2240       H  0.66293799  0.39628151  0.13852027     0.14700
H2241       H  0.71848326  0.02483334  0.13823257     0.14800
C2242       C  0.66098486  0.49574039  0.17675776    -0.24200
H2243       H  0.71261448  0.40196551  0.11566220     0.05000
H2244       H  0.75596254  0.43673884  0.12767212     0.08200
H2245       H  0.73835713  0.44501986  0.09983562     0.08200
H2246       H  0.65771997  0.48647876  0.19605730     0.08200
H2247       H  0.63405136  0.48903604  0.16906997     0.08200
H2248       H  0.67861108  0.52608712  0.17685746     0.05000
C2249       C  0.61002723  0.47314171  0.26685541    -0.20800
C2250       C  0.61816187  0.44505183  0.26322525    -0.07400
C2251       C  0.64804890  0.44671386  0.27608050     0.13500
C2252       C  0.66761249  0.47535288  0.29285413    -0.20900
C2253       C  0.65806669  0.99928299  0.29683752    -0.07400
C2254       C  0.62879113  0.50091313  0.28409598     0.13500
C2255       C  0.61677883  0.02549085  0.28817176    -0.24200
H2256       H  0.58796626  0.47281724  0.25672497     0.14700
H2257       H  0.68956908  0.47601781  0.30340725     0.14800
C2258       C  0.65954846  0.41860863  0.27241330    -0.24200
H2259       H  0.59515967  0.52504529  0.27566736     0.05000
H2260       H  0.64028809  0.05363891  0.28517892     0.08200
H2261       H  0.60647060  0.02302274  0.30717746     0.08200
H2262       H  0.66547067  0.41712747  0.25277386     0.08200
H2263       H  0.63747765  0.39139986  0.27886271     0.08200
H2264       H  0.68463700  0.42548400  0.28290894     0.05000
C2265       C  0.82929781  0.31542602  0.38893253    -0.20800
C2266       C  0.84914313  0.33646911  0.36856101    -0.07400
C2267       C  0.88700254  0.34835800  0.36666191     0.13500
C2268       C  0.90426036  0.34066356  0.38561966    -0.20900
C2269       C  0.88487542  0.32105822  0.40646479    -0.07400
C2270       C  0.84664480  0.30760265  0.40794566     0.13500
C2271       C  0.82375980  0.28413090  0.42906585    -0.24200
H2272       H  0.80015524  0.30552356  0.39015746     0.14700
H2273       H  0.93337499  0.35044450  0.38424575     0.14800
C2274       C  0.90919374  0.36746764  0.34418989    -0.24200
H2275       H  0.79412935  0.27405999  0.42639452     0.05000
H2276       H  0.83212048  0.30018238  0.44625898     0.08200
H2277       H  0.82717315  0.25986608  0.43091037     0.08200
H2278       H  0.91058868  0.39412992  0.34150178     0.08200
H2279       H  0.89649978  0.34944163  0.32814552     0.08200
H2280       H  0.93783760  0.37319902  0.34546647     0.05000
C2281       C  0.80327952  0.44560566  0.23090613    -0.20800
C2282       C  0.83136519  0.43956822  0.23880347    -0.07400
C2283       C  0.86745277  0.46248566  0.22966474     0.13500
C2284       C  0.87436358  0.49051226  0.21303353    -0.20900
C2285       C  0.84756395  0.99503553  0.20585666    -0.07400
C2286       C  0.81036760  0.47390552  0.21419116     0.13500
C2287       C  0.78408797  0.98659435  0.21364154    -0.24200
H2288       H  0.77565901  0.42803424  0.23780348     0.14700
H2289       H  0.90187107  0.50747581  0.20576645     0.14800
C2290       C  0.89874263  0.45669205  0.23642710    -0.24200
H2291       H  0.75901506  0.96942430  0.22474795     0.05000
H2292       H  0.77613836  0.98177806  0.19412743     0.08200
H2293       H  0.79430160  0.01570937  0.21837215     0.08200
H2294       H  0.89134234  0.42802585  0.23235675     0.08200
H2295       H  0.90526432  0.46252797  0.25610584     0.08200
H2296       H  0.92414791  0.47517600  0.22600675     0.05000
C2297       C  0.93572626  0.37611819  0.27513792    -0.20800
C2298       C  0.90354652  0.36305654  0.26142598    -0.07400
C2299       C  0.90356257  0.35221185  0.23666707     0.13500
C2300       C  0.93520916  0.35413248  0.22689797    -0.20900
C2301       C  0.96659962  0.36591710  0.24098040    -0.07400
C2302       C  0.96711186  0.37750054  0.26536769     0.13500
C2303       C  0.50739951  0.41845020  0.26951759    -0.24200
H2304       H  0.93649654  0.38539968  0.29368762     0.14700
H2305       H  0.93519363  0.34545264  0.20822737     0.14800
C2306       C  0.87079232  0.33838345  0.22003967    -0.24200
H2307       H  0.50566669  0.43426052  0.28518536     0.05000
H2308       H  0.52266886  0.43802987  0.25451289     0.08200
H2309       H  0.52283491  0.40511199  0.27561035     0.08200
H2310       H  0.86338589  0.35988348  0.21752931     0.08200
H2311       H  0.84726466  0.31310077  0.22779747     0.08200
H2312       H  0.87637455  0.33130244  0.20156568     0.05000
C2313       C  0.69994916  0.33709398  0.24296387    -0.20800
C2314       C  0.69311975  0.32907181  0.26808552    -0.07400
C2315       C  0.65952468  0.32208032  0.27827413     0.13500
C2316       C  0.63393918  0.32367178  0.26305620    -0.20900
C2317       C  0.64042787  0.33125530  0.23778404    -0.07400
C2318       C  0.67415750  0.33831584  0.22765800     0.13500
C2319       C  0.68312855  0.34642562  0.20086639    -0.24200
H2320       H  0.72582309  0.34240610  0.23517433     0.14700
H2321       H  0.60827457  0.31839548  0.27120359     0.14800
C2322       C  0.64860805  0.31113556  0.30459036    -0.24200
H2323       H  0.71037752  0.35004555  0.19620044     0.05000
H2324       H  0.68381434  0.37220993  0.19589122     0.08200
H2325       H  0.66228914  0.32336436  0.18973369     0.08200
H2326       H  0.66863779  0.30719764  0.31503987     0.08200
H2327       H  0.62225368  0.28465040  0.30525362     0.08200
H2328       H  0.64483321  0.33236871  0.31389430     0.05000
C2329       C  0.76749776  0.18528424  0.32109998    -0.20800
C2330       C  0.73002088  0.15904778  0.32467589    -0.07400
C2331       C  0.70355006  0.16818948  0.31704460     0.13500
C2332       C  0.71526640  0.20315630  0.30716475    -0.20900
C2333       C  0.75259352  0.22952508  0.30441102    -0.07400
C2334       C  0.77905019  0.22027007  0.31122611     0.13500
C2335       C  0.81948230  0.24787303  0.30945731    -0.24200
H2336       H  0.78814905  0.17880558  0.32659921     0.14700
H2337       H  0.69499830  0.21044307  0.30212681     0.14800
C2338       C  0.66287448  0.14203606  0.31975196    -0.24200
H2339       H  0.83641323  0.23649611  0.31623320     0.05000
H2340       H  0.82604615  0.27241506  0.32060144     0.08200
H2341       H  0.82726554  0.25620526  0.29011377     0.08200
H2342       H  0.65572964  0.13480603  0.33930605     0.08200
H2343       H  0.65464095  0.11691405  0.30883548     0.08200
H2344       H  0.64657172  0.15420767  0.31313072     0.05000
C2345       C  0.80237534  0.47128371  0.34084477    -0.20800
C2346       C  0.78043441  0.43351947  0.34555199    -0.07400
C2347       C  0.74738414  0.42100009  0.35926756     0.13500
C2348       C  0.73705442  0.44632156  0.36705224    -0.20900
C2349       C  0.75826000  0.48358188  0.36118670    -0.07400
C2350       C  0.79481224  0.99787098  0.34935711     0.13500
C2351       C  0.81952392  0.03801666  0.34355494    -0.24200
H2352       H  0.82782782  0.48135187  0.33073987     0.14700
H2353       H  0.71133069  0.43673108  0.37675002     0.14800
C2354       C  0.72178188  0.38100224  0.36499348    -0.24200
H2355       H  0.84545881  0.04340992  0.33462151     0.05000
H2356       H  0.82666713  0.05425884  0.36069388     0.08200
H2357       H  0.80568682  0.04759537  0.33092097     0.08200
H2358       H  0.73589998  0.37046852  0.37658949     0.08200
H2359       H  0.71236691  0.36501689  0.34777695     0.08200
H2360       H  0.69700045  0.37648129  0.37516243     0.05000
C2361       C  0.86726775  0.02134738  0.76094547    -0.20800
C2362       C  0.89830836  0.05528156  0.76695942    -0.07400
C2363       C  0.90982070  0.06172420  0.79174320     0.13500
C2364       C  0.88807578  0.53404690  0.80827077    -0.20900
C2365       C  0.85804490  0.49953690  0.80241921    -0.07400
C2366       C  0.84750100  0.99415195  0.77869478     0.13500
C2367       C  0.81531516  0.95816703  0.77062849    -0.24200
H2368       H  0.85822971  0.01589918  0.74212739     0.14700
H2369       H  0.89620557  0.54041464  0.82722088     0.14800
C2370       C  0.94311798  0.09670913  0.80018214    -0.24200
H2371       H  0.81178880  0.95697999  0.75048334     0.05000
H2372       H  0.78965206  0.95436983  0.77900828     0.08200
H2373       H  0.81953279  0.93526489  0.77604550     0.08200
H2374       H  0.93927012  0.12042689  0.79682116     0.08200
H2375       H  0.96798100  0.10057735  0.79046983     0.08200
H2376       H  0.94404325  0.59723076  0.81888729     0.05000
C2377       C  0.73411686  0.06434754  0.86752730    -0.20800
C2378       C  0.72389689  0.06377375  0.84301777    -0.07400
C2379       C  0.72990747  0.04216116  0.82601188     0.13500
C2380       C  0.73236549  0.51056792  0.83567056    -0.20900
C2381       C  0.75248875  0.01917793  0.85884290    -0.07400
C2382       C  0.74837989  0.04240280  0.87568880     0.13500
C2383       C  0.75957113  0.04496321  0.90202998    -0.24200
H2384       H  0.73073123  0.08194715  0.88039602     0.14700
H2385       H  0.73109426  0.48951427  0.82370416     0.14800
C2386       C  0.70349253  0.52596826  0.80148339    -0.24200
H2387       H  0.75607482  0.06578894  0.91216766     0.05000
H2388       H  0.78893647  0.05299902  0.90305600     0.08200
H2389       H  0.74238835  0.01818894  0.91128774     0.08200
H2390       H  0.71871070  0.55168007  0.79069159     0.08200
H2391       H  0.67380799  0.51672834  0.80182180     0.08200
H2392       H  0.70654516  0.50451719  0.79183896     0.05000
C2393       C  0.73621317  0.31328482  0.82215372    -0.20800
C2394       C  0.77353545  0.33789143  0.82737180    -0.07400
C2395       C  0.79957407  0.32751131  0.82074412     0.13500
C2396       C  0.78738896  0.29260707  0.81069241    -0.20900
C2397       C  0.75004727  0.26753670  0.80671426    -0.07400
C2398       C  0.72419034  0.27840895  0.81196474     0.13500
C2399       C  0.68374495  0.25272203  0.80809308    -0.24200
H2400       H  0.71597428  0.32094477  0.82657904     0.14700
H2401       H  0.80724282  0.28429293  0.80652320     0.14800
C2402       C  0.84021296  0.35227909  0.82457762    -0.24200
H2403       H  0.66729702  0.26531228  0.81373948     0.05000
H2404       H  0.67425058  0.22734571  0.81903116     0.08200
H2405       H  0.67839248  0.24553561  0.78843445     0.08200
H2406       H  0.85610667  0.33936399  0.81834231     0.08200
H2407       H  0.84597287  0.35858168  0.84431115     0.08200
H2408       H  0.85022760  0.37799020  0.81394440     0.05000
C2409       C  0.86178441  0.38931755  0.93503884    -0.20800
C2410       C  0.82815842  0.38837935  0.93494637    -0.07400
C2411       C  0.80142842  0.36746447  0.95281688     0.13500
C2412       C  0.80914312  0.34811194  0.97048126    -0.20900
C2413       C  0.84325552  0.34975410  0.97098385    -0.07400
C2414       C  0.86989469  0.37069978  0.95292963     0.13500
C2415       C  0.90657810  0.37284199  0.95191474    -0.24200
H2416       H  0.88207670  0.40520608  0.92114392     0.14700
H2417       H  0.78864371  0.33210645  0.98423433     0.14800
C2418       C  0.76451919  0.36479985  0.95287155    -0.24200
H2419       H  0.92286757  0.38837286  0.93565255     0.05000
H2420       H  0.90254556  0.34479779  0.95093225     0.08200
H2421       H  0.92287009  0.38714325  0.96832603     0.08200
H2422       H  0.75057881  0.35344444  0.93518352     0.08200
H2423       H  0.76794049  0.39237250  0.95561592     0.08200
H2424       H  0.74656571  0.34663726  0.96772709     0.05000
C2425       C  0.50900854  0.16302522  0.06227602    -0.20800
C2426       C  0.50101610  0.14875969  0.03844946    -0.07400
C2427       C  0.96241384  0.12165342  0.03300478     0.13500
C2428       C  0.93821568  0.10395580  0.05247626    -0.20900
C2429       C  0.94881132  0.11322865  0.07694762    -0.07400
C2430       C  0.98480516  0.14273136  0.08179442     0.13500
C2431       C  0.99796435  0.15585751  0.10738166    -0.24200
H2432       H  0.53489113  0.18788808  0.06563679     0.14700
H2433       H  0.91057638  0.08232289  0.04835025     0.14800
C2434       C  0.94789947  0.11069089  0.00731499    -0.24200
H2435       H  0.52149597  0.18914202  0.10644519     0.05000
H2436       H  0.99738357  0.13344348  0.11827370     0.08200
H2437       H  0.98031649  0.16514566  0.11616709     0.08200
H2438       H  0.96108201  0.09692840  0.99804364     0.08200
H2439       H  0.95307395  0.13530576  0.99678409     0.08200
H2440       H  0.91787205  0.09108644  0.00713463     0.05000
C2441       C  0.64760025  0.18401063  0.91118375    -0.20800
C2442       C  0.61164810  0.17590331  0.90588735    -0.07400
C2443       C  0.59645771  0.16028853  0.88285868     0.13500
C2444       C  0.61716903  0.15248523  0.86631184    -0.20900
C2445       C  0.65275972  0.16027958  0.87186326    -0.07400
C2446       C  0.66831399  0.17652166  0.89447783     0.13500
C2447       C  0.70611817  0.18460837  0.90145058    -0.24200
H2448       H  0.65957768  0.19601512  0.92868537     0.14700
H2449       H  0.60555795  0.14031725  0.84876818     0.14800
C2450       C  0.55826312  0.15075754  0.87565859    -0.24200
H2451       H  0.71343431  0.19585880  0.92025696     0.05000
H2452       H  0.72681961  0.20513459  0.88870923     0.08200
H2453       H  0.70736882  0.15901225  0.90069310     0.08200
H2454       H  0.55639148  0.17599765  0.87500187     0.08200
H2455       H  0.53797902  0.13101704  0.88898100     0.08200
H2456       H  0.55081685  0.13789141  0.85728236     0.05000
C2457       C  0.96154316  0.06837694  0.92954329    -0.20800
C2458       C  0.95863060  0.09927283  0.93506562    -0.07400
C2459       C  0.92539916  0.09838756  0.92964510     0.13500
C2460       C  0.89711143  0.06753548  0.91805712    -0.20900
C2461       C  0.90053970  0.03719560  0.91165396    -0.07400
C2462       C  0.93319187  0.03745604  0.91797748     0.13500
C2463       C  0.92842223  0.49978383  0.92569854    -0.24200
H2464       H  0.98658431  0.06853539  0.93392317     0.14700
H2465       H  0.87204503  0.06739830  0.91376731     0.14800
C2466       C  0.91898501  0.12951517  0.93579678    -0.24200
H2467       H  0.96580178  0.01068174  0.91953479     0.05000
H2468       H  0.93110381  0.48961927  0.90754292     0.08200
H2469       H  0.90235714  0.47921967  0.93461923     0.08200
H2470       H  0.43851216  0.15519701  0.92644951     0.08200
H2471       H  0.92334631  0.13580654  0.95561820     0.08200
H2472       H  0.89057946  0.12276844  0.93155152     0.05000
C2473       C  0.62725137  0.31614945  0.90632302    -0.20800
C2474       C  0.62524783  0.31784749  0.93207322    -0.07400
C2475       C  0.65043684  0.35066630  0.94398922     0.13500
C2476       C  0.67934659  0.37852329  0.93035955    -0.20900
C2477       C  0.68376502  0.37457890  0.90517682    -0.07400
C2478       C  0.65625092  0.34379120  0.89277811     0.13500
C2479       C  0.65838441  0.33850402  0.86567431    -0.24200
H2480       H  0.60706584  0.29193432  0.89667816     0.14700
H2481       H  0.69981520  0.40291543  0.93973182     0.14800
C2482       C  0.64801931  0.35633278  0.97096731    -0.24200
H2483       H  0.63472278  0.31233201  0.85918934     0.05000
H2484       H  0.68374901  0.33791996  0.86129623     0.08200
H2485       H  0.65831460  0.36117163  0.85551634     0.08200
H2486       H  0.65129784  0.33587787  0.98154600     0.08200
H2487       H  0.62107801  0.35363994  0.97532747     0.08200
H2488       H  0.66976415  0.38398959  0.97694170     0.05000
C2489       C  0.98610012  0.26659143  0.00567730    -0.20800
C2490       C  0.98292541  0.25345397  0.98158783    -0.07400
C2491       C  0.95652345  0.25392816  0.96607561     0.13500
C2492       C  0.93406166  0.26713809  0.97518850    -0.20900
C2493       C  0.93738202  0.28000919  0.99936277    -0.07400
C2494       C  0.96372470  0.27936601  0.01484039     0.13500
C2495       C  0.96771637  0.29050846  0.04144364    -0.24200
H2496       H  0.50325376  0.26373394  0.02034365     0.14700
H2497       H  0.91362621  0.26724157  0.96337913     0.14800
C2498       C  0.95108870  0.23973819  0.94029821    -0.24200
H2499       H  0.48373893  0.28217716  0.05339757     0.05000
H2500       H  0.43711763  0.27176822  0.05217020     0.08200
H2501       H  0.97745429  0.32021599  0.04299955     0.08200
H2502       H  0.94411776  0.21069134  0.94046620     0.08200
H2503       H  0.97648856  0.25642504  0.92942878     0.08200
H2504       H  0.92845225  0.24108394  0.93109553     0.05000
C2505       C  0.67031767  0.20731922  0.02069028    -0.20800
C2506       C  0.66452588  0.23531033  0.01217825    -0.07400
C2507       C  0.69274611  0.27246275  0.01573867     0.13500
C2508       C  0.72570917  0.28010327  0.02697720    -0.20900
C2509       C  0.73173925  0.25195122  0.03436330    -0.07400
C2510       C  0.70341953  0.21507044  0.03152678     0.13500
C2511       C  0.70761228  0.18360028  0.04023095    -0.24200
H2512       H  0.64898192  0.17890727  0.01852880     0.14700
H2513       H  0.74774111  0.30831124  0.02886374     0.14800
C2514       C  0.68924601  0.30448995  0.00737495    -0.24200
H2515       H  0.68188337  0.15681295  0.03810575     0.05000
H2516       H  0.71474935  0.18730756  0.05990675     0.08200
H2517       H  0.72919423  0.18213908  0.02954119     0.08200
H2518       H  0.66579296  0.30415723  0.01685403     0.08200
H2519       H  0.68533874  0.30315784  0.98727696     0.08200
H2520       H  0.71415053  0.33119827  0.01152982     0.05000
O2521       O  0.51842413  0.73080091  0.98985528    -0.85900
O2522       O  0.54786686  0.69982909  0.01700126    -0.82900
C2523       C  0.52333156  0.66597313  0.01582387     0.97600
O2524       O  0.52165859  0.64746856  0.99734367    -0.83000
O2525       O  0.51806750  0.63041807  0.94879413    -0.85600
C2526       C  0.99263465  0.63399684  0.94338469     1.02100
O2527       O  0.99400416  0.66432615  0.94424360    -0.78400
O2528       O  0.51310217  0.73519136  0.95054624    -0.78600
C2529       C  0.50478607  0.73863100  0.97231206     1.02100
O2530       O  0.58763840  0.77952615  0.96505799    -0.85900
O2531       O  0.61761756  0.74600967  0.99083509    -0.82900
C2532       C  0.62455680  0.72219665  0.99831190     0.97600
O2533       O  0.60039814  0.68858755  0.99599203    -0.83000
O2534       O  0.59633694  0.67932196  0.94559611    -0.85600
C2535       C  0.58737526  0.67914770  0.92363431     1.02100
O2536       O  0.55946441  0.68183014  0.91854274    -0.78400
O2537       O  0.58242308  0.75185773  0.93017333    -0.78500
C2538       C  0.59660253  0.78061750  0.94267608     1.02000
Cr2539     Cr  0.56713872  0.73666998  0.98900076     1.93700
Cr2540     Cr  0.55897872  0.66426253  0.97162045     1.93200
Cr2541     Cr  0.53735206  0.70721494  0.93784721     1.39100
O2542       O  0.55466435  0.70301654  0.96617131    -1.23600
O2543       O  0.77287969  0.97853134  0.84807763    -0.85900
O2544       O  0.80593719  0.94924489  0.82209421    -0.82900
C2545       C  0.83940389  0.97436103  0.82373635     0.97600
O2546       O  0.85681648  0.97753817  0.84308715    -0.83000
O2547       O  0.87059386  0.97819889  0.89223982    -0.85600
C2548       C  0.86925225  0.50613606  0.89899466     1.02100
O2549       O  0.83895972  0.00518766  0.89776299    -0.78400
O2550       O  0.76701417  0.98416311  0.88724964    -0.78600
C2551       C  0.76537075  0.99318215  0.86537839     1.02100
O2552       O  0.72279444  0.90911386  0.87118280    -0.85900
O2553       O  0.75904075  0.87954422  0.84729635    -0.82900
C2554       C  0.78392343  0.87347192  0.84046407     0.97600
O2555       O  0.81702327  0.89857358  0.84295328    -0.83000
O2556       O  0.82303850  0.90097138  0.89336459    -0.85600
C2557       C  0.82013254  0.90803081  0.91540139     1.02100
O2558       O  0.81538123  0.93461457  0.92094888    -0.78400
O2559       O  0.74638706  0.91365589  0.90753538    -0.78500
C2560       C  0.71926859  0.90003879  0.89359326     1.02000
Cr2561     Cr  0.76739159  0.92985568  0.84898395     1.93700
Cr2562     Cr  0.83891811  0.93901753  0.86815422     1.93200
Cr2563     Cr  0.79258707  0.95844654  0.90117173     1.39100
O2564       O  0.79924911  0.94218849  0.87288175    -1.23600
O2565       O  0.74463400  0.78129853  0.31106491    -0.85900
O2566       O  0.79897210  0.82172661  0.34460350    -0.82900
C2567       C  0.83091128  0.84607835  0.35101740     0.97600
O2568       O  0.84657617  0.87771187  0.34130711    -0.83000
O2569       O  0.87232620  0.87167831  0.29622849    -0.85600
C2570       C  0.87033198  0.85907183  0.27500059     1.02100
O2571       O  0.84229666  0.84928962  0.26228601    -0.78400
O2572       O  0.78707113  0.78746286  0.28525011    -0.78600
C2573       C  0.76215268  0.76821521  0.30056200     1.02100
O2574       O  0.73262406  0.84238772  0.30498190    -0.85900
O2575       O  0.78029739  0.87729314  0.34350518    -0.82900
C2576       C  0.79429278  0.90959998  0.33573157     0.97600
O2577       O  0.81733801  0.92004979  0.31846206    -0.83000
O2578       O  0.84695116  0.91638843  0.27473022    -0.85600
C2579       C  0.82388177  0.90921814  0.25791506     1.02100
O2580       O  0.79541730  0.87790175  0.25628583    -0.78400
O2581       O  0.73757669  0.81327017  0.27349040    -0.78500
C2582       C  0.72267672  0.82908198  0.28381559     1.02000
Cr2583     Cr  0.76647311  0.83218047  0.32428274     1.93700
Cr2584     Cr  0.84256259  0.89342552  0.30738270     1.93200
Cr2585     Cr  0.79120226  0.83323630  0.27159971     1.39100
O2586       O  0.80052548  0.85311935  0.30111858    -1.23600
O2587       O  0.54299165  0.78311990  0.19448009    -0.85900
O2588       O  0.53187425  0.82282292  0.15981898    -0.82900
C2589       C  0.52474042  0.84685363  0.15243808     0.97600
O2590       O  0.54064742  0.87882779  0.16154596    -0.83000
O2591       O  0.50812374  0.87467422  0.20623369    -0.85600
C2592       C  0.99463327  0.86289963  0.22835635     1.02100
O2593       O  0.51591700  0.85495703  0.24127652    -0.78400
O2594       O  0.50650547  0.79042567  0.21943530    -0.78600
C2595       C  0.51251908  0.77008350  0.20539761     1.02100
O2596       O  0.61736857  0.84318562  0.20139620    -0.85900
O2597       O  0.60794656  0.87774296  0.16128238    -0.82900
C2598       C  0.62500455  0.91090365  0.16763829     0.97600
O2599       O  0.61207250  0.92198410  0.18413547    -0.83000
O2600       O  0.57958499  0.91973513  0.22783445    -0.85600
C2601       C  0.59609517  0.91304032  0.24456286     1.02100
O2602       O  0.59134119  0.88114674  0.24703758    -0.78400
O2603       O  0.58054191  0.81428344  0.23163069    -0.78500
C2604       C  0.61229997  0.82951655  0.22261381     1.02000
Cr2605     Cr  0.57423780  0.83342846  0.18086000     1.93700
Cr2606     Cr  0.56013695  0.89569322  0.19537940     1.93200
Cr2607     Cr  0.54922599  0.83650914  0.23257695     1.39100
O2608       O  0.56097608  0.85543944  0.20281338    -1.23600
O2609       O  0.78915575  0.52236246  0.15410595    -0.85900
O2610       O  0.84551646  0.54725439  0.18508408    -0.82900
C2611       C  0.85558474  0.52348083  0.18482806     0.97600
O2612       O  0.87465085  0.52241617  0.16740104    -0.83000
O2613       O  0.89293673  0.52006574  0.11962602    -0.85600
C2614       C  0.86343247  0.99311794  0.11113330     1.02100
O2615       O  0.83503073  0.99551330  0.11060269    -0.78400
O2616       O  0.78565833  0.51964105  0.11425760    -0.78600
C2617       C  0.77065128  0.50984950  0.13510367     1.02100
O2618       O  0.81721939  0.59366833  0.13128923    -0.85900
O2619       O  0.87614384  0.61935713  0.16068088    -0.82900
C2620       C  0.90656549  0.62605100  0.16867743     0.97600
O2621       O  0.91534742  0.60152358  0.16720061    -0.83000
O2622       O  0.92638689  0.59891101  0.11738412    -0.85600
C2623       C  0.91967782  0.59145115  0.09502535     1.02100
O2624       O  0.88900953  0.56420869  0.08877569    -0.78400
O2625       O  0.84360829  0.58969539  0.09758428    -0.78500
C2626       C  0.82989034  0.60477374  0.10990785     1.02000
Cr2627     Cr  0.83389808  0.56986020  0.15622973     1.93700
Cr2628     Cr  0.89926049  0.56063061  0.14243920     1.93200
Cr2629     Cr  0.83940383  0.54304218  0.10506263     1.39100
O2630       O  0.85733990  0.55787394  0.13467006    -1.23600
O2631       O  0.77996071  0.74292361  0.02838782    -0.85900
O2632       O  0.82266246  0.79652760  0.99587956    -0.82900
C2633       C  0.84751594  0.82806266  0.98937687     0.97600
O2634       O  0.87873692  0.84367691  0.99944746    -0.83000
O2635       O  0.87034989  0.86918844  0.04385515    -0.85600
C2636       C  0.85980323  0.86833736  0.06554272     1.02100
O2637       O  0.84786070  0.83964746  0.07816291    -0.78400
O2638       O  0.78517796  0.78497995  0.05413795    -0.78600
C2639       C  0.76625003  0.75991071  0.03884939     1.02100
O2640       O  0.83898506  0.72880340  0.03644956    -0.85900
O2641       O  0.87805659  0.77618253  0.99843370    -0.82900
C2642       C  0.91018462  0.79138240  0.00686295     0.97600
O2643       O  0.91903758  0.81430544  0.02386523    -0.83000
O2644       O  0.91335774  0.84237804  0.06717069    -0.85600
C2645       C  0.90586519  0.81799475  0.08333111     1.02100
O2646       O  0.87375899  0.79031816  0.08465576    -0.78400
O2647       O  0.80802526  0.73371821  0.06689927    -0.78500
C2648       C  0.82267187  0.71751185  0.05674760     1.02000
Cr2649     Cr  0.83148363  0.76354135  0.01647220     1.93700
Cr2650     Cr  0.89220955  0.83919548  0.03387386     1.93200
Cr2651     Cr  0.83007317  0.78790739  0.06877110     1.39100
O2652       O  0.85144283  0.79722574  0.03965418    -1.23600
O2653       O  0.75724891  0.71484583  0.81138743    -0.85900
O2654       O  0.70403565  0.67438969  0.84529304    -0.82900
C2655       C  0.67206915  0.65067843  0.85214982     0.97600
O2656       O  0.65640839  0.61867718  0.84305403    -0.83000
O2657       O  0.62845204  0.62572797  0.79951204    -0.85600
C2658       C  0.62931124  0.63776575  0.77828981     1.02100
O2659       O  0.65707815  0.64813545  0.76481820    -0.78400
O2660       O  0.71415390  0.70976168  0.78700553    -0.78600
C2661       C  0.73982086  0.72860505  0.80185384     1.02100
O2662       O  0.76866858  0.65411549  0.80304411    -0.85900
O2663       O  0.72250444  0.61769820  0.84239715    -0.82900
C2664       C  0.70763261  0.58566873  0.83383749     0.97600
O2665       O  0.68345509  0.57615743  0.81766547    -0.83000
O2666       O  0.65229765  0.58070982  0.77555373    -0.85600
C2667       C  0.67500404  0.58720523  0.75836601     1.02100
O2668       O  0.70349252  0.61866903  0.75626509    -0.78400
O2669       O  0.76246875  0.68383388  0.77256460    -0.78500
C2670       C  0.77888662  0.66926620  0.78228812     1.02000
Cr2671     Cr  0.73557049  0.66364417  0.82394931     1.93700
Cr2672     Cr  0.65840030  0.60337484  0.80861607     1.93200
Cr2673     Cr  0.70869766  0.66373319  0.77236171     1.39100
O2674       O  0.70053167  0.64340884  0.80165716    -1.23600
O2675       O  0.97365041  0.70704735  0.68219521    -0.85900
O2676       O  0.95114957  0.64799100  0.65324220    -0.82900
C2677       C  0.97701144  0.64090344  0.65372670     0.97600
O2678       O  0.98083253  0.62429274  0.67150058    -0.83000
O2679       O  0.98576970  0.60989573  0.71961949    -0.85600
C2680       C  0.50989972  0.63599757  0.72649349     1.02100
O2681       O  0.50653107  0.66383961  0.72560713    -0.78400
O2682       O  0.97825506  0.71298262  0.72192380    -0.78600
C2683       C  0.98601966  0.72691522  0.70073033     1.02100
O2684       O  0.90265717  0.67517935  0.70644140    -0.85900
O2685       O  0.88018574  0.61473695  0.67851390    -0.82900
C2686       C  0.87629429  0.58525788  0.67037154     0.97600
O2687       O  0.90217639  0.57860254  0.67267358    -0.83000
O2688       O  0.90726239  0.57189272  0.72334751    -0.85600
C2689       C  0.91586566  0.58074230  0.74545865     1.02100
O2690       O  0.94161646  0.61282931  0.75046872    -0.78400
O2691       O  0.91081944  0.65330436  0.74074745    -0.78500
C2692       C  0.89319038  0.66390727  0.72826206     1.02000
Cr2693     Cr  0.92804270  0.65965799  0.68176987     1.93700
Cr2694     Cr  0.94380197  0.59910016  0.69714676     1.93200
Cr2695     Cr  0.95882916  0.66057313  0.73272475     1.39100
O2696       O  0.94351644  0.63996722  0.70377885    -1.23600
O2697       O  0.97765973  0.76385466  0.49220873    -0.85900
O2698       O  0.95319910  0.80028634  0.51962449    -0.82900
C2699       C  0.97834009  0.83381263  0.51750710     0.97600
O2700       O  0.97980592  0.85168597  0.49873085    -0.83000
O2701       O  0.97919821  0.86694536  0.45001136    -0.85600
C2702       C  0.50794426  0.86593411  0.44137374     1.02100
O2703       O  0.50649311  0.83553491  0.44264352    -0.78400
O2704       O  0.98357990  0.76223798  0.45243736    -0.78600
C2705       C  0.99158673  0.75752697  0.47391331     1.02100
O2706       O  0.90667539  0.71819117  0.47038558    -0.85900
O2707       O  0.88131795  0.75566447  0.49597125    -0.82900
C2708       C  0.87605269  0.78079808  0.50316785     0.97600
O2709       O  0.90155026  0.81366160  0.50081202    -0.83000
O2710       O  0.90135098  0.81999535  0.45021061    -0.85600
C2711       C  0.90796365  0.81790023  0.42792701     1.02100
O2712       O  0.93454414  0.81329179  0.42185041    -0.78400
O2713       O  0.91289304  0.74326537  0.43407068    -0.78500
C2714       C  0.89796486  0.71600862  0.44803905     1.02000
Cr2715     Cr  0.93057140  0.76205464  0.49276851     1.93700
Cr2716     Cr  0.94056921  0.83493841  0.47462926     1.93200
Cr2717     Cr  0.95825778  0.78901753  0.44023839     1.39100
O2718       O  0.94304898  0.79492218  0.46917892    -1.23600
O2719       O  0.74074643  0.52515950  0.34814549    -0.85900
O2720       O  0.70661108  0.55044833  0.31986447    -0.82900
C2721       C  0.67285852  0.52553720  0.31903721     0.97600
O2722       O  0.65135483  0.52020119  0.33665441    -0.83000
O2723       O  0.62812160  0.51360248  0.38451192    -0.85600
C2724       C  0.63155626  0.98552651  0.39071909     1.02100
O2725       O  0.66215346  0.98750554  0.39050874    -0.78400
O2726       O  0.73403196  0.51216092  0.38725889    -0.78600
C2727       C  0.74341266  0.50811757  0.36596125     1.02100
O2728       O  0.77929924  0.59331763  0.37530077    -0.85900
O2729       O  0.74420492  0.61959689  0.34785321    -0.82900
C2730       C  0.71967049  0.62415750  0.33869042     0.97600
O2731       O  0.68699441  0.59782949  0.33916287    -0.83000
O2732       O  0.67334962  0.59146222  0.38935523    -0.85600
C2733       C  0.67245765  0.58234129  0.41143808     1.02100
O2734       O  0.67569750  0.55475553  0.41676757    -0.78400
O2735       O  0.74714212  0.57929351  0.40934114    -0.78500
C2736       C  0.77655888  0.59847729  0.39793373     1.02000
Cr2737     Cr  0.73987914  0.57093806  0.34941378     1.93700
Cr2738     Cr  0.66301078  0.55571058  0.36295595     1.93200
Cr2739     Cr  0.70408338  0.53459892  0.39876474     1.39100
O2740       O  0.70274565  0.55376413  0.37034896    -1.23600
O2741       O  0.70665520  0.96778771  0.66020790    -0.85900
O2742       O  0.64697980  0.94554745  0.68812725    -0.82900
C2743       C  0.64127523  0.97245485  0.68718871     0.97600
O2744       O  0.62517717  0.97637026  0.66913784    -0.83000
O2745       O  0.60927084  0.97929303  0.62076454    -0.85600
C2746       C  0.63861508  0.50811736  0.61083359     1.02100
O2747       O  0.66767984  0.00350570  0.61385824    -0.78400
O2748       O  0.71547864  0.97779331  0.62090648    -0.78600
C2749       C  0.72760512  0.98446202  0.64262929     1.02100
O2750       O  0.67668575  0.89738581  0.63535030    -0.85900
O2751       O  0.61472827  0.87467070  0.66184967    -0.82900
C2752       C  0.58564195  0.87101784  0.67049809     0.97600
O2753       O  0.57954761  0.89734665  0.66899533    -0.83000
O2754       O  0.57371737  0.90148786  0.61848683    -0.85600
C2755       C  0.58261556  0.90884950  0.59625194     1.02100
O2756       O  0.61471234  0.93476900  0.59057257    -0.78400
O2757       O  0.65909641  0.90859200  0.60030479    -0.78500
C2758       C  0.66838632  0.89000398  0.61292226     1.02000
Cr2759     Cr  0.65977918  0.92243436  0.65967722     1.93700
Cr2760     Cr  0.60001896  0.93856379  0.64401342     1.93200
Cr2761     Cr  0.66288369  0.95512265  0.60872467     1.34300
O2762       O  0.64119126  0.93864642  0.63744326    -1.23600
O2763       O  0.71579079  0.75258069  0.52536267    -0.85900
O2764       O  0.67330883  0.69990391  0.49158978    -0.82900
C2765       C  0.64885523  0.66792876  0.48528226     0.97600
O2766       O  0.61775952  0.65216551  0.49574253    -0.83000
O2767       O  0.62642746  0.62652020  0.53975461    -0.85600
C2768       C  0.63693403  0.62734885  0.56136376     1.02100
O2769       O  0.64672396  0.65529498  0.57440702    -0.78400
O2770       O  0.70963050  0.71056305  0.55154511    -0.78600
C2771       C  0.72913647  0.73582863  0.53652330     1.02100
O2772       O  0.65664354  0.76732835  0.53420608    -0.85900
O2773       O  0.61835785  0.72046299  0.49580735    -0.82900
C2774       C  0.58591272  0.70441499  0.50393523     0.97600
O2775       O  0.57664453  0.68061724  0.52044157    -0.83000
O2776       O  0.58176467  0.65160672  0.56343027    -0.85600
C2777       C  0.58911626  0.67559717  0.57979197     1.02100
O2778       O  0.62047224  0.70412797  0.58074996    -0.78400
O2779       O  0.68669300  0.76131884  0.56435073    -0.78500
C2780       C  0.67235340  0.77798486  0.55468601     1.02000
Cr2781     Cr  0.66450381  0.73263765  0.51339626     1.93700
Cr2782     Cr  0.60380826  0.65600983  0.53015456     1.93200
Cr2783     Cr  0.66445498  0.70709027  0.56547358     1.39100
O2784       O  0.64417051  0.69823267  0.53618677    -1.23600
C2785       C  0.62336395  0.58714254  0.59717787    -0.20800
C2786       C  0.63584847  0.59524100  0.57282716    -0.07400
C2787       C  0.64890540  0.57428908  0.56108054     0.13500
C2788       C  0.65029974  0.54661197  0.57429624    -0.20900
C2789       C  0.63787544  0.53867933  0.59862200    -0.07400
C2790       C  0.62374104  0.55878351  0.61012136     0.13500
C2791       C  0.61012075  0.55118207  0.63618778    -0.24200
H2792       H  0.61316427  0.60315426  0.60614328     0.14700
H2793       H  0.66052486  0.53054233  0.56545180     0.14800
C2794       C  0.66203970  0.58138828  0.53494633    -0.24200
H2795       H  0.60141955  0.57058717  0.64258893     0.05000
H2796       H  0.63227044  0.55392756  0.64838712     0.08200
H2797       H  0.58612086  0.52302800  0.63777503     0.08200
H2798       H  0.68443253  0.61021837  0.53280918     0.08200
H2799       H  0.63898821  0.57606844  0.52278739     0.08200
H2800       H  0.67262976  0.56330683  0.52901968     0.05000
C2801       C  0.70264280  0.86151212  0.59555824    -0.20800
C2802       C  0.66900350  0.85934486  0.60030886    -0.07400
C2803       C  0.63679143  0.83109852  0.58924257     0.13500
C2804       C  0.63905684  0.80603083  0.57349755    -0.20900
C2805       C  0.67267003  0.80824003  0.56859235    -0.07400
C2806       C  0.70487457  0.83620479  0.57989568     0.13500
C2807       C  0.74184210  0.84028046  0.57477364    -0.24200
H2808       H  0.72737224  0.88376250  0.60349450     0.14700
H2809       H  0.61428246  0.78397390  0.56544968     0.14800
C2810       C  0.59977735  0.82700277  0.59431585    -0.24200
H2811       H  0.76425540  0.86489758  0.58384966     0.05000
H2812       H  0.74734268  0.84309707  0.55478571     0.08200
H2813       H  0.74264121  0.81604728  0.58166943     0.08200
H2814       H  0.59910269  0.85126442  0.58740094     0.08200
H2815       H  0.59421447  0.82421884  0.61429798     0.08200
H2816       H  0.57734233  0.80241830  0.58522190     0.05000
C2817       C  0.68163028  0.64172663  0.42731733    -0.20800
C2818       C  0.66678084  0.60379715  0.43089157    -0.07400
C2819       C  0.64608114  0.58743724  0.45238431     0.13500
C2820       C  0.64069283  0.60924986  0.46940497    -0.20900
C2821       C  0.65610051  0.64725342  0.46608292    -0.07400
C2822       C  0.67704150  0.66370972  0.44472461     0.13500
C2823       C  0.69358134  0.70408166  0.43972127    -0.24200
H2824       H  0.69733344  0.65439378  0.41083923     0.14700
H2825       H  0.62437681  0.59646127  0.48562999     0.14800
C2826       C  0.62842673  0.54686790  0.45724132    -0.24200
H2827       H  0.70747577  0.71191889  0.42160610     0.05000
H2828       H  0.71437685  0.72026661  0.45378761     0.08200
H2829       H  0.67175434  0.71135261  0.43991349     0.08200
H2830       H  0.64979954  0.53923383  0.45936616     0.08200
H2831       H  0.61004729  0.53126447  0.44190859     0.08200
H2832       H  0.61171901  0.53863581  0.47428849     0.05000
C2833       C  0.49548856  0.84159623  0.56103194    -0.20800
C2834       C  0.00598975  0.85267373  0.53721726    -0.07400
C2835       C  0.54174116  0.88408121  0.53253291     0.13500
C2836       C  0.56573109  0.90058868  0.55221579    -0.20900
C2837       C  0.55533923  0.88859884  0.57645378    -0.07400
C2838       C  0.51958025  0.85813244  0.58080256     0.13500
C2839       C  0.50621705  0.84240402  0.60601312    -0.24200
H2840       H  0.97274430  0.81256875  0.56436659     0.14700
H2841       H  0.59300471  0.92340616  0.54848665     0.14800
C2842       C  0.55590212  0.89815174  0.50707897    -0.24200
H2843       H  0.47805929  0.81815075  0.60567570     0.05000
H2844       H  0.50541517  0.86320266  0.61799250     0.08200
H2845       H  0.52452170  0.83341415  0.61393211     0.08200
H2846       H  0.03417399  0.91266352  0.50139229     0.08200
H2847       H  0.55271093  0.87530633  0.49529816     0.08200
H2848       H  0.58544343  0.91950508  0.50705041     0.05000
C2849       C  0.56615639  0.89116933  0.41768494    -0.20800
C2850       C  0.53968780  0.89735555  0.42890495    -0.07400
C2851       C  0.54338475  0.93251727  0.42667313     0.13500
C2852       C  0.57266835  0.95972193  0.41303957    -0.20900
C2853       C  0.59938975  0.95371124  0.40227204    -0.07400
C2854       C  0.59597991  0.91877251  0.40458149     0.13500
C2855       C  0.62296874  0.90983251  0.39292139    -0.24200
H2856       H  0.56358091  0.86439775  0.41907700     0.14700
H2857       H  0.57514168  0.98639916  0.41128701     0.14800
C2858       C  0.51729578  0.94233555  0.43873891    -0.24200
H2859       H  0.61427703  0.88040700  0.39507629     0.05000
H2860       H  0.64858048  0.42608981  0.40111127     0.08200
H2861       H  0.62532114  0.91596306  0.37304477     0.08200
H2862       H  0.00209237  0.93484592  0.44801325     0.08200
H2863       H  0.48944790  0.92566103  0.43091392     0.08200
H2864       H  0.52582493  0.97160434  0.43588411     0.05000
C2865       C  0.84362501  0.63563866  0.40601304    -0.20800
C2866       C  0.80782775  0.62723435  0.41186968    -0.07400
C2867       C  0.80224597  0.64639048  0.43128635     0.13500
C2868       C  0.83245710  0.67307340  0.44420800    -0.20900
C2869       C  0.86803269  0.68195872  0.43793055    -0.07400
C2870       C  0.87389003  0.66310373  0.41873623     0.13500
C2871       C  0.91206276  0.67213280  0.41169072    -0.24200
H2872       H  0.84793621  0.62092024  0.39135418     0.14700
H2873       H  0.82849564  0.68869493  0.45842150     0.14800
C2874       C  0.76496705  0.64092789  0.43760983    -0.24200
H2875       H  0.91174581  0.65419771  0.39671992     0.05000
H2876       H  0.92576325  0.66833287  0.42774013     0.08200
H2877       H  0.92827969  0.70099504  0.40534673     0.08200
H2878       H  0.74699026  0.61318314  0.44538768     0.08200
H2879       H  0.75236703  0.64473382  0.42096848     0.08200
H2880       H  0.76663296  0.66094266  0.45147276     0.05000
C2881       C  0.00190589  0.71167191  0.49422484    -0.20800
C2882       C  0.51432494  0.74221764  0.47788606    -0.07400
C2883       C  0.54721147  0.75186782  0.46535530     0.13500
C2884       C  0.56923226  0.73788915  0.47365614    -0.20900
C2885       C  0.55921318  0.71452544  0.49424432    -0.07400
C2886       C  0.52512207  0.70364165  0.50595051     0.13500
C2887       C  0.00695827  0.66565774  0.51983478    -0.24200
H2888       H  0.97355010  0.69872513  0.50023316     0.14700
H2889       H  0.59496671  0.74616508  0.46434963     0.14800
C2890       C  0.55996592  0.77813358  0.44408771    -0.24200
H2891       H  0.97709171  0.65468503  0.52236561     0.05000
H2892       H  0.01966793  0.67350173  0.53819111     0.08200
H2893       H  0.50833585  0.65164777  0.52330758     0.08200
H2894       H  0.56284472  0.80464497  0.44989701     0.08200
H2895       H  0.53980093  0.76638302  0.42901900     0.08200
H2896       H  0.58691372  0.78364621  0.43688693     0.05000
C2897       C  0.81569153  0.73392321  0.52049094    -0.20800
C2898       C  0.84004824  0.77102258  0.51454609    -0.07400
C2899       C  0.82846082  0.79680495  0.51850270     0.13500
C2900       C  0.79267388  0.78446142  0.52700433    -0.20900
C2901       C  0.76796854  0.74720351  0.53172497    -0.07400
C2902       C  0.77988802  0.72169323  0.52888674     0.13500
C2903       C  0.75439280  0.68128075  0.53312576    -0.24200
H2904       H  0.82426399  0.71394897  0.51787283     0.14700
H2905       H  0.78349084  0.80402586  0.52937529     0.14800
C2906       C  0.85279081  0.83714771  0.51319172    -0.24200
H2907       H  0.76785702  0.66508584  0.52910836     0.05000
H2908       H  0.73026334  0.67128922  0.52097202     0.08200
H2909       H  0.74522877  0.67622897  0.55250656     0.08200
H2910       H  0.86082542  0.84132792  0.49359234     0.08200
H2911       H  0.87759223  0.84871895  0.52482966     0.08200
H2912       H  0.83874046  0.85281708  0.51711038     0.05000
C2913       C  0.54091237  0.66938323  0.64002020    -0.20800
C2914       C  0.00368524  0.65208336  0.63353148    -0.07400
C2915       C  0.99799119  0.62868891  0.61369861     0.13500
C2916       C  0.52355206  0.64993265  0.59121758    -0.20900
C2917       C  0.56063637  0.66901900  0.59828833    -0.07400
C2918       C  0.56936385  0.67913883  0.62307659     0.13500
C2919       C  0.60832076  0.69843185  0.63218378    -0.24200
H2920       H  0.54747905  0.67632996  0.65913613     0.14700
H2921       H  0.51672989  0.64163239  0.57233583     0.14800
C2922       C  0.96195948  0.59350665  0.61064542    -0.24200
H2923       H  0.60963312  0.70215037  0.65233341     0.05000
H2924       H  0.62412677  0.72608540  0.62379854     0.08200
H2925       H  0.62140916  0.68207081  0.62756667     0.08200
H2926       H  0.93948652  0.59968450  0.60886480     0.08200
H2927       H  0.95649075  0.57558218  0.62682091     0.08200
H2928       H  0.96193673  0.57818675  0.59412951     0.05000
C2929       C  0.52154321  0.82004378  0.67674842    -0.20800
C2930       C  0.55892504  0.83551509  0.68199647    -0.07400
C2931       C  0.57045933  0.81526418  0.69638480     0.13500
C2932       C  0.54477987  0.77925349  0.70354567    -0.20900
C2933       C  0.50813440  0.76279096  0.69635926    -0.07400
C2934       C  0.99800423  0.78671030  0.68255903     0.13500
C2935       C  0.95867958  0.76994388  0.67455017    -0.24200
H2936       H  0.51256082  0.83564660  0.66612267     0.14700
H2937       H  0.55374892  0.76316252  0.71361697     0.14800
C2938       C  0.60976973  0.83127174  0.70427862    -0.24200
H2939       H  0.95402458  0.78989463  0.66432562     0.05000
H2940       H  0.94033321  0.76071024  0.69082777     0.08200
H2941       H  0.95113675  0.74621542  0.66235647     0.08200
H2942       H  0.61907059  0.85768917  0.71385831     0.08200
H2943       H  0.62770262  0.83569317  0.68823067     0.08200
H2944       H  0.61304957  0.81269262  0.71700402     0.05000
C2945       C  0.79153534  0.49872360  0.64657315    -0.20800
C2946       C  0.77056540  0.51344383  0.63770765    -0.07400
C2947       C  0.78551734  0.55168744  0.63795010     0.13500
C2948       C  0.82074901  0.57428432  0.64757446    -0.20900
C2949       C  0.84133800  0.55962307  0.65758265    -0.07400
C2950       C  0.82668602  0.52120279  0.65648580     0.13500
C2951       C  0.84670747  0.50335472  0.66699169    -0.24200
H2952       H  0.77941928  0.46917742  0.64694184     0.14700
H2953       H  0.83170471  0.60364233  0.64807372     0.14800
C2954       C  0.79249287  0.00775334  0.60776438    -0.24200
H2955       H  0.83047227  0.47301387  0.66538680     0.05000
H2956       H  0.85220232  0.51021448  0.68669191     0.08200
H2957       H  0.87294344  0.51294791  0.65699884     0.08200
H2958       H  0.77639135  0.01679034  0.59689495     0.08200
H2959       H  0.77812326  0.97733103  0.60812201     0.08200
H2960       H  0.81935059  0.01794182  0.59843962     0.05000
C2961       C  0.69631798  0.55375925  0.73103975    -0.20800
C2962       C  0.66722239  0.55736098  0.74046079    -0.07400
C2963       C  0.63099081  0.53200369  0.73276271     0.13500
C2964       C  0.63475629  0.99049324  0.72950008    -0.20900
C2965       C  0.65333102  0.00020817  0.70702791    -0.07400
C2966       C  0.69018511  0.52610295  0.71396107     0.13500
C2967       C  0.72241000  0.52427485  0.70385771    -0.24200
H2968       H  0.72401222  0.57273967  0.73702382     0.14700
H2969       H  0.61417615  0.96200723  0.73263846     0.14800
C2970       C  0.59820764  0.53385732  0.74186852    -0.24200
H2971       H  0.74866661  0.54555099  0.71200511     0.05000
H2972       H  0.72424773  0.52874720  0.68380446     0.08200
H2973       H  0.71910380  0.49703329  0.70786794     0.08200
H2974       H  0.60236608  0.56161565  0.73851545     0.08200
H2975       H  0.59402655  0.52737960  0.76167775     0.08200
H2976       H  0.59897967  0.97413263  0.77054965     0.05000
C2977       C  0.53373385  0.60826519  0.75544786    -0.20800
C2978       C  0.54103261  0.63758611  0.73980622    -0.07400
C2979       C  0.57696330  0.66820202  0.73854261     0.13500
C2980       C  0.60476972  0.66809484  0.75235057    -0.20900
C2981       C  0.59758658  0.63859107  0.76777233    -0.07400
C2982       C  0.56142899  0.60851943  0.76963733     0.13500
C2983       C  0.55205686  0.57613456  0.78586228    -0.24200
H2984       H  0.50598381  0.58513685  0.75682173     0.14700
H2985       H  0.63259704  0.69104822  0.75081240     0.14800
C2986       C  0.58653657  0.70041046  0.72204674    -0.24200
H2987       H  0.52268195  0.55459652  0.78446301     0.05000
H2988       H  0.55757927  0.58512672  0.80521720     0.08200
H2989       H  0.56874390  0.56371042  0.78056538     0.08200
H2990       H  0.57197811  0.71470560  0.72818516     0.08200
H2991       H  0.57875111  0.69082048  0.70294312     0.08200
H2992       H  0.61637705  0.72077145  0.72224808     0.05000
C2993       C  0.85969610  0.69576211  0.73937840    -0.20800
C2994       C  0.86203122  0.66396956  0.74027603    -0.07400
C2995       C  0.83664196  0.63379690  0.75470029     0.13500
C2996       C  0.81065561  0.63694914  0.76880255    -0.20900
C2997       C  0.80888434  0.66910793  0.76851221    -0.07400
C2998       C  0.83332870  0.69876222  0.75325888     0.13500
C2999       C  0.83271220  0.73409636  0.75203532    -0.24200
H3000       H  0.87929362  0.71872753  0.72832740     0.14700
H3001       H  0.79103072  0.61382511  0.77973900     0.14800
C3002       C  0.83604254  0.59777678  0.75478737    -0.24200
H3003       H  0.85568344  0.75510493  0.74076117     0.05000
H3004       H  0.83522932  0.74546734  0.77069914     0.08200
H3005       H  0.80687925  0.72927344  0.74355233     0.08200
H3006       H  0.86120404  0.60111517  0.76341033     0.08200
H3007       H  0.83396519  0.58771427  0.73576288     0.08200
H3008       H  0.81229203  0.57636323  0.76531537     0.05000
C3009       C  0.87878497  0.94385654  0.11093292    -0.20800
C3010       C  0.86305738  0.96176296  0.09901266    -0.07400
C3011       C  0.84811262  0.95015814  0.07532786     0.13500
C3012       C  0.84831326  0.92015420  0.06453101    -0.20900
C3013       C  0.86247123  0.90119015  0.07694623    -0.07400
C3014       C  0.87844668  0.91347743  0.10029676     0.13500
C3015       C  0.89615602  0.89541069  0.11380514    -0.24200
H3016       H  0.89082948  0.95332771  0.12881845     0.14700
H3017       H  0.83660791  0.91090174  0.04653791     0.14800
C3018       C  0.83283638  0.96983837  0.06099576    -0.24200
H3019       H  0.90905470  0.90995757  0.13108049     0.05000
H3020       H  0.91789121  0.89557266  0.10221981     0.08200
H3021       H  0.87538271  0.86676979  0.11865348     0.08200
H3022       H  0.85395104  0.99930338  0.05914509     0.08200
H3023       H  0.80818006  0.96705401  0.07032819     0.08200
H3024       H  0.82449050  0.95836828  0.04231350     0.05000
C3025       C  0.85658760  0.68914769  0.07222849    -0.20800
C3026       C  0.82282786  0.68732282  0.06980399    -0.07400
C3027       C  0.79147401  0.65938830  0.08202297     0.13500
C3028       C  0.79473156  0.63354834  0.09615960    -0.20900
C3029       C  0.82847625  0.63518442  0.09823288    -0.07400
C3030       C  0.85994110  0.66362875  0.08643820     0.13500
C3031       C  0.89737118  0.66780956  0.08923718    -0.24200
H3032       H  0.88072242  0.71130230  0.06343777     0.14700
H3033       H  0.77067729  0.61127228  0.10491085     0.14800
C3034       C  0.75432754  0.65564699  0.07931180    -0.24200
H3035       H  0.91917149  0.69338322  0.08051208     0.05000
H3036       H  0.89809629  0.64459578  0.08039122     0.08200
H3037       H  0.90401768  0.66884784  0.10893572     0.08200
H3038       H  0.74708611  0.65278113  0.05966159     0.08200
H3039       H  0.75445683  0.67996183  0.08705877     0.08200
H3040       H  0.73264901  0.63108102  0.08902986     0.05000
C3041       C  0.96009378  0.80793102  0.13639849    -0.20800
C3042       C  0.49629400  0.83737880  0.13359453    -0.07400
C3043       C  0.50203033  0.86031346  0.11334887     0.13500
C3044       C  0.97104251  0.85420697  0.09710234    -0.20900
C3045       C  0.93569047  0.82342716  0.10074786    -0.07400
C3046       C  0.93053211  0.79957656  0.12063333     0.13500
C3047       C  0.89413289  0.76559735  0.12582620    -0.24200
H3048       H  0.95587626  0.79026688  0.15191566     0.14700
H3049       H  0.97602632  0.87235330  0.08177388     0.14800
C3050       C  0.53927455  0.89304629  0.10783332    -0.24200
H3051       H  0.88590959  0.74667793  0.10999502     0.05000
H3052       H  0.87296870  0.77317310  0.12954944     0.08200
H3053       H  0.89534379  0.75049823  0.14205724     0.08200
H3054       H  0.55982080  0.88417173  0.10608271     0.08200
H3055       H  0.54759436  0.91365669  0.12263741     0.08200
H3056       H  0.53937548  0.90668953  0.09047612     0.05000
C3057       C  0.96807485  0.67136003  0.18503850    -0.20800
C3058       C  0.93211046  0.66274598  0.17971959    -0.07400
C3059       C  0.92206714  0.68971936  0.18455658     0.13500
C3060       C  0.94836888  0.72420130  0.19381651    -0.20900
C3061       C  0.98462293  0.73312458  0.19787458    -0.07400
C3062       C  0.99441837  0.70604975  0.19380055     0.13500
C3063       C  0.03255217  0.71323257  0.19885988    -0.24200
H3064       H  0.97611044  0.65112194  0.18167699     0.14700
H3065       H  0.44060377  0.74264750  0.20010456     0.14800
C3066       C  0.88407871  0.68318213  0.17982475    -0.24200
H3067       H  0.03433913  0.68805274  0.19671373     0.05000
H3068       H  0.04040625  0.72312849  0.21790298     0.08200
H3069       H  0.05254941  0.73386949  0.18586698     0.08200
H3070       H  0.86352333  0.65900286  0.19041111     0.08200
H3071       H  0.87792649  0.67886963  0.15999302     0.08200
H3072       H  0.38043090  0.70354795  0.19010082     0.05000
C3073       C  0.68478777  0.92254149  0.15125839    -0.20800
C3074       C  0.66108909  0.93609287  0.15611128    -0.07400
C3075       C  0.67293395  0.97316733  0.15056039     0.13500
C3076       C  0.70866486  0.99601675  0.14144882    -0.20900
C3077       C  0.73286804  0.98284629  0.13808801    -0.07400
C3078       C  0.72074495  0.94565799  0.14278862     0.13500
C3079       C  0.74629513  0.93079882  0.13979204    -0.24200
H3080       H  0.67579101  0.89413196  0.15533736     0.14700
H3081       H  0.72749019  0.52931948  0.15628336     0.14800
C3082       C  0.64820671  0.98884603  0.15418192    -0.24200
H3083       H  0.73245994  0.90108914  0.14419183     0.05000
H3084       H  0.77010667  0.94546024  0.15219130     0.08200
H3085       H  0.75631149  0.93468387  0.12060364     0.08200
H3086       H  0.64187281  0.98886151  0.17388660     0.08200
H3087       H  0.62236958  0.97229436  0.14387860     0.08200
H3088       H  0.66125886  0.01760262  0.14756594     0.05000
C3089       C  0.61039259  0.97035987  0.26623448    -0.20800
C3090       C  0.61929020  0.94291751  0.26207907    -0.07400
C3091       C  0.64965812  0.94510773  0.27461968     0.13500
C3092       C  0.66883271  0.97351278  0.29170459    -0.20900
C3093       C  0.65757809  0.50174185  0.29747155    -0.07400
C3094       C  0.62880112  0.99791198  0.28370698     0.13500
C3095       C  0.61769966  0.52928082  0.28805050    -0.24200
H3096       H  0.58801812  0.96970010  0.25628457     0.14700
H3097       H  0.69125363  0.97461286  0.30193598     0.14800
C3098       C  0.66234938  0.91809020  0.26998604    -0.24200
H3099       H  0.59436840  0.02128612  0.27567495     0.05000
H3100       H  0.64157070  0.55694921  0.28441105     0.08200
H3101       H  0.60801521  0.52796980  0.30711916     0.08200
H3102       H  0.66839397  0.91783101  0.25022870     0.08200
H3103       H  0.64093138  0.89021856  0.27588849     0.08200
H3104       H  0.68768009  0.92529361  0.28028846     0.05000
C3105       C  0.83187057  0.82151220  0.39229354    -0.20800
C3106       C  0.85034799  0.83807835  0.37041951    -0.07400
C3107       C  0.88720864  0.84682275  0.36743198     0.13500
C3108       C  0.90471050  0.83947359  0.38642652    -0.20900
C3109       C  0.88672712  0.82377438  0.40859076    -0.07400
C3110       C  0.84962858  0.81463258  0.41154766     0.13500
C3111       C  0.82826318  0.79709846  0.43464634    -0.24200
H3112       H  0.80358943  0.81461495  0.39450980     0.14700
H3113       H  0.93300038  0.84650831  0.38399254     0.14800
C3114       C  0.90802621  0.86253897  0.34390389    -0.24200
H3115       H  0.79919987  0.78998650  0.43314823     0.05000
H3116       H  0.84039680  0.81631784  0.45021722     0.08200
H3117       H  0.82851473  0.77145033  0.43850228     0.08200
H3118       H  0.91102359  0.88970557  0.34019591     0.08200
H3119       H  0.89328487  0.84331356  0.32872495     0.08200
H3120       H  0.93606645  0.86651314  0.34455892     0.05000
C3121       C  0.80595835  0.94875296  0.23507564    -0.20800
C3122       C  0.83178834  0.93791868  0.23952944    -0.07400
C3123       C  0.86567479  0.95553025  0.22691395     0.13500
C3124       C  0.87310297  0.98378452  0.21042749    -0.20900
C3125       C  0.84648045  0.49673251  0.20510794    -0.07400
C3126       C  0.81338142  0.97713428  0.21838587     0.13500
C3127       C  0.77887755  0.47783961  0.20539187    -0.24200
H3128       H  0.77998414  0.93509586  0.24480849     0.14700
H3129       H  0.89909898  0.99692899  0.20070541     0.14800
C3130       C  0.89360825  0.94361926  0.22998062    -0.24200
H3131       H  0.75264496  0.45785771  0.21442316     0.05000
H3132       H  0.77547423  0.47262476  0.18544928     0.08200
H3133       H  0.78408930  0.50580985  0.20940864     0.08200
H3134       H  0.88088558  0.91394983  0.22577155     0.08200
H3135       H  0.90411065  0.94874125  0.24896182     0.08200
H3136       H  0.91752747  0.95883865  0.21755038     0.05000
C3137       C  0.93731432  0.88556550  0.27004136    -0.20800
C3138       C  0.90174331  0.85805212  0.26379206    -0.07400
C3139       C  0.89699540  0.83196168  0.24558004     0.13500
C3140       C  0.92786974  0.83506646  0.23359814    -0.20900
C3141       C  0.96312772  0.86304439  0.23955714    -0.07400
C3142       C  0.96807777  0.88827859  0.25819350     0.13500
C3143       C  0.50589205  0.90621202  0.27402466    -0.24200
H3144       H  0.94106062  0.90557332  0.28385051     0.14700
H3145       H  0.92459246  0.81512844  0.21985033     0.14800
C3146       C  0.85979082  0.79998109  0.23916581    -0.24200
H3147       H  0.50328879  0.91942942  0.29087765     0.05000
H3148       H  0.52477844  0.92818381  0.26131934     0.08200
H3149       H  0.51790137  0.88921461  0.27931750     0.08200
H3150       H  0.84295076  0.80972323  0.23000978     0.08200
H3151       H  0.84564036  0.78444056  0.25596888     0.08200
H3152       H  0.86195128  0.78069806  0.22638910     0.05000
C3153       C  0.70526038  0.85125144  0.24777280    -0.20800
C3154       C  0.69461633  0.83215562  0.27011014    -0.07400
C3155       C  0.65736412  0.81276686  0.27676299     0.13500
C3156       C  0.63161214  0.81219402  0.26057919    -0.20900
C3157       C  0.64192033  0.83076857  0.23785843    -0.07400
C3158       C  0.67959228  0.85133048  0.23167848     0.13500
C3159       C  0.69327063  0.87357247  0.20847201    -0.24200
H3160       H  0.73393372  0.86590827  0.24268138     0.14700
H3161       H  0.60298194  0.79667956  0.26594632     0.14800
C3162       C  0.64355816  0.79133050  0.30026125    -0.24200
H3163       H  0.72366655  0.88827336  0.20702308     0.05000
H3164       H  0.68483230  0.89453067  0.20806046     0.08200
H3165       H  0.68208282  0.85529821  0.19234833     0.08200
H3166       H  0.66571982  0.79281785  0.31177337     0.08200
H3167       H  0.62428491  0.76201449  0.29603324     0.08200
H3168       H  0.62878799  0.80211324  0.31111703     0.05000
C3169       C  0.76712559  0.68809238  0.32702703    -0.20800
C3170       C  0.72988592  0.66012465  0.32696021    -0.07400
C3171       C  0.70402316  0.66758270  0.31583413     0.13500
C3172       C  0.71588888  0.70269351  0.30623188    -0.20900
C3173       C  0.75280961  0.73049360  0.30690805    -0.07400
C3174       C  0.77884300  0.72302265  0.31719464     0.13500
C3175       C  0.81871823  0.75232817  0.31895884    -0.24200
H3176       H  0.78734478  0.68296971  0.33527608     0.14700
H3177       H  0.69602504  0.70883668  0.29852295     0.14800
C3178       C  0.66382632  0.63928201  0.31408346    -0.24200
H3179       H  0.83524005  0.74204352  0.32799075     0.05000
H3180       H  0.82153690  0.77578018  0.32980956     0.08200
H3181       H  0.83027159  0.76200581  0.30039380     0.08200
H3182       H  0.65181090  0.63057356  0.33265770     0.08200
H3183       H  0.66029099  0.61532498  0.30350485     0.08200
H3184       H  0.64811158  0.65010414  0.30457824     0.05000
C3185       C  0.80544226  0.97280559  0.34191555    -0.20800
C3186       C  0.78347683  0.93511224  0.34681078    -0.07400
C3187       C  0.75079589  0.92275726  0.36092323     0.13500
C3188       C  0.74048818  0.94808881  0.36854913    -0.20900
C3189       C  0.76138472  0.98513636  0.36220059    -0.07400
C3190       C  0.79170170  0.49631364  0.34833601     0.13500
C3191       C  0.81648382  0.53647671  0.34259064    -0.24200
H3192       H  0.83075275  0.98272956  0.33166872     0.14700
H3193       H  0.71489601  0.93861547  0.37838686     0.14800
C3194       C  0.72544633  0.88290067  0.36721125    -0.24200
H3195       H  0.84247845  0.54188394  0.33374627     0.05000
H3196       H  0.82351756  0.55270345  0.35973130     0.08200
H3197       H  0.80276408  0.54607548  0.32986704     0.08200
H3198       H  0.73999840  0.87273376  0.37870364     0.08200
H3199       H  0.71541955  0.86642163  0.35022416     0.08200
H3200       H  0.70100734  0.87860285  0.37772121     0.05000
C3201       C  0.86707617  0.51844341  0.75960130    -0.20800
C3202       C  0.89683177  0.55331007  0.76552468    -0.07400
C3203       C  0.90759747  0.56087852  0.79043536     0.13500
C3204       C  0.88991118  0.03463895  0.80937815    -0.20900
C3205       C  0.85878679  0.00091158  0.80340258    -0.07400
C3206       C  0.84766472  0.49152645  0.77760744     0.13500
C3207       C  0.81690561  0.45449815  0.76976731    -0.24200
H3208       H  0.85874938  0.51208502  0.74069393     0.14700
H3209       H  0.89872272  0.04016267  0.82825124     0.14800
C3210       C  0.93960827  0.59688631  0.79887210    -0.24200
H3211       H  0.81407059  0.45239400  0.74956926     0.05000
H3212       H  0.79048614  0.44966067  0.77747784     0.08200
H3213       H  0.82230814  0.43273840  0.77610848     0.08200
H3214       H  0.93447801  0.61962447  0.79484190     0.08200
H3215       H  0.96522845  0.60176781  0.78973850     0.08200
H3216       H  0.94802946  0.09627401  0.82007160     0.05000
C3217       C  0.73496228  0.56465650  0.86599413    -0.20800
C3218       C  0.71943189  0.55979908  0.84255485    -0.07400
C3219       C  0.71818629  0.53215744  0.82723291     0.13500
C3220       C  0.74360987  0.02010934  0.83414856    -0.20900
C3221       C  0.74833400  0.51556558  0.85893607    -0.07400
C3222       C  0.74925379  0.54285642  0.87441770     0.13500
C3223       C  0.76620038  0.55001195  0.89942253    -0.24200
H3224       H  0.73623008  0.58590113  0.87775614     0.14700
H3225       H  0.74718459  0.00319236  0.82080775     0.14800
C3226       C  0.72348711  0.04318729  0.79897625    -0.24200
H3227       H  0.76590940  0.57331872  0.90859481     0.05000
H3228       H  0.79517542  0.55678569  0.89788791     0.08200
H3229       H  0.75059202  0.52542273  0.91116155     0.08200
H3230       H  0.73900135  0.07185071  0.79216262     0.08200
H3231       H  0.69392747  0.03157996  0.79549653     0.08200
H3232       H  0.73250857  0.02683964  0.78819481     0.05000
C3233       C  0.73627174  0.81157891  0.82535384    -0.20800
C3234       C  0.77377425  0.83730418  0.82894348    -0.07400
C3235       C  0.79994073  0.82733956  0.82177177     0.13500
C3236       C  0.78782426  0.79236126  0.81180787    -0.20900
C3237       C  0.75040610  0.76668995  0.80876357    -0.07400
C3238       C  0.72428936  0.77643434  0.81576124     0.13500
C3239       C  0.68372893  0.74921403  0.81451356    -0.24200
H3240       H  0.71584418  0.81862737  0.83048947     0.14700
H3241       H  0.80783188  0.78459250  0.80677846     0.14800
C3242       C  0.84064889  0.85271923  0.82482088    -0.24200
H3243       H  0.66716993  0.76090908  0.82166653     0.05000
H3244       H  0.67703674  0.72463686  0.82565917     0.08200
H3245       H  0.67557161  0.74089653  0.79527087     0.08200
H3246       H  0.85664396  0.84000690  0.81839501     0.08200
H3247       H  0.84714991  0.85963128  0.84442815     0.08200
H3248       H  0.84985770  0.87807126  0.81393260     0.05000
C3249       C  0.85415866  0.87924877  0.93111783    -0.20800
C3250       C  0.82573429  0.88688164  0.93461349    -0.07400
C3251       C  0.80349451  0.87372508  0.95582746     0.13500
C3252       C  0.81074146  0.85374767  0.97316530    -0.20900
C3253       C  0.83995252  0.84726170  0.96992701    -0.07400
C3254       C  0.86171090  0.85983055  0.94859215     0.13500
C3255       C  0.89227125  0.85200105  0.94393469    -0.24200
H3256       H  0.87097665  0.88906794  0.91473585     0.14700
H3257       H  0.79396859  0.84368761  0.98956020     0.14800
C3258       C  0.77160307  0.87969024  0.95994135    -0.24200
H3259       H  0.90551833  0.86256446  0.92584796     0.05000
H3260       H  0.88122142  0.82193699  0.94429826     0.08200
H3261       H  0.91367572  0.86531532  0.95813230     0.08200
H3262       H  0.75218788  0.86805495  0.94444509     0.08200
H3263       H  0.78153063  0.90942388  0.96156550     0.08200
H3264       H  0.75635842  0.86619056  0.97699263     0.05000
C3265       C  0.50523433  0.66104332  0.06000332    -0.20800
C3266       C  0.49631565  0.64732841  0.03607818    -0.07400
C3267       C  0.96508095  0.61568550  0.03255004     0.13500
C3268       C  0.94056294  0.59839139  0.05195183    -0.20900
C3269       C  0.94773715  0.61280105  0.07572096    -0.07400
C3270       C  0.98070198  0.64658639  0.07989772     0.13500
C3271       C  0.98986946  0.66492718  0.10457887    -0.24200
H3272       H  0.53169655  0.68523938  0.06332278     0.14700
H3273       H  0.91536048  0.57293366  0.04836408     0.14800
C3274       C  0.95362917  0.59829256  0.00755314    -0.24200
H3275       H  0.51961660  0.68605413  0.10444129     0.05000
H3276       H  0.99311476  0.64730477  0.11814643     0.08200
H3277       H  0.96782576  0.67019371  0.11060140     0.08200
H3278       H  0.97201490  0.58827110  0.00127102     0.08200
H3279       H  0.95412993  0.61842510  0.99431339     0.08200
H3280       H  0.92534602  0.57422789  0.00761961     0.05000
C3281       C  0.64709628  0.69379721  0.90510896    -0.20800
C3282       C  0.60861960  0.67364949  0.90413041    -0.07400
C3283       C  0.59138514  0.64683946  0.88577339     0.13500
C3284       C  0.61301519  0.64013728  0.86938283    -0.20900
C3285       C  0.65160177  0.65991160  0.87040965    -0.07400
C3286       C  0.66886140  0.68786569  0.88824382     0.13500
C3287       C  0.70999422  0.71110196  0.89007778    -0.24200
H3288       H  0.66020383  0.71443848  0.91919577     0.14700
H3289       H  0.59951067  0.61927926  0.85548520     0.14800
C3290       C  0.55018391  0.62419022  0.88391041    -0.24200
H3291       H  0.71847437  0.73036647  0.90576232     0.05000
H3292       H  0.72138687  0.72783295  0.87324242     0.08200
H3293       H  0.72201923  0.69331203  0.89266389     0.08200
H3294       H  0.53881437  0.64219254  0.87986647     0.08200
H3295       H  0.53835438  0.60935502  0.90135437     0.08200
H3296       H  0.54140518  0.60352721  0.86906404     0.05000
C3297       C  0.95808132  0.56718412  0.93375533    -0.20800
C3298       C  0.95972711  0.60122903  0.93299968    -0.07400
C3299       C  0.93076551  0.60323969  0.92135302     0.13500
C3300       C  0.90230328  0.57187555  0.91025749    -0.20900
C3301       C  0.90120605  0.53818962  0.91050608    -0.07400
C3302       C  0.92919431  0.53566352  0.92293373     0.13500
C3303       C  0.93880898  0.00552834  0.91291702    -0.24200
H3304       H  0.97960407  0.56509208  0.94291332     0.14700
H3305       H  0.88060540  0.57375877  0.90115442     0.14800
C3306       C  0.92900790  0.63796938  0.92030629    -0.24200
H3307       H  0.95132707  0.50267920  0.93716938     0.05000
H3308       H  0.93795011  0.00058341  0.89293677     0.08200
H3309       H  0.91732114  0.98060607  0.92242380     0.08200
H3310       H  0.47050474  0.65740749  0.89747521     0.08200
H3311       H  0.92793573  0.64710641  0.93916394     0.08200
H3312       H  0.90415085  0.63393669  0.91071280     0.05000
C3313       C  0.62964606  0.81222853  0.90473115    -0.20800
C3314       C  0.62419640  0.81487215  0.92999646    -0.07400
C3315       C  0.64707743  0.84851917  0.94196532     0.13500
C3316       C  0.67633799  0.87700958  0.92888492    -0.20900
C3317       C  0.68349758  0.87276797  0.90427330    -0.07400
C3318       C  0.65919065  0.84024907  0.89190548     0.13500
C3319       C  0.66584029  0.83340349  0.86585192    -0.24200
H3320       H  0.61183906  0.78709745  0.89498562     0.14700
H3321       H  0.69485770  0.90228892  0.93827492     0.14800
C3322       C  0.64179019  0.85453528  0.96846948    -0.24200
H3323       H  0.66536528  0.85399494  0.85355486     0.05000
H3324       H  0.64471044  0.80579481  0.85936310     0.08200
H3325       H  0.69278602  0.83503368  0.86457630     0.08200
H3326       H  0.64543903  0.83522290  0.98014506     0.08200
H3327       H  0.61391604  0.85040611  0.97130064     0.08200
H3328       H  0.66194725  0.88277635  0.97451301     0.05000
C3329       C  0.98958568  0.77312402  0.00210608    -0.20800
C3330       C  0.98419284  0.75669048  0.97893570    -0.07400
C3331       C  0.95595044  0.75452904  0.96403567     0.13500
C3332       C  0.93266531  0.76671691  0.97335773    -0.20900
C3333       C  0.93730795  0.78173745  0.99703592    -0.07400
C3334       C  0.96682077  0.78547059  0.01138655     0.13500
C3335       C  0.97405452  0.80095670  0.03700760    -0.24200
H3336       H  0.51801418  0.78529343  0.00786140     0.14700
H3337       H  0.91046721  0.76418108  0.96213291     0.14800
C3338       C  0.94957131  0.73863268  0.93871221    -0.24200
H3339       H  0.51028017  0.81784918  0.03800812     0.05000
H3340       H  0.46350848  0.79962593  0.04699144     0.08200
H3341       H  0.98139251  0.83014031  0.03659423     0.08200
H3342       H  0.94396125  0.71007586  0.93960772     0.08200
H3343       H  0.97417206  0.75535139  0.92713410     0.08200
H3344       H  0.92581890  0.73823729  0.92983253     0.05000
C3345       C  0.66688765  0.70540284  0.01824260    -0.20800
C3346       C  0.66049322  0.73328019  0.01036542    -0.07400
C3347       C  0.68842784  0.77046686  0.01437971     0.13500
C3348       C  0.72169789  0.77822890  0.02535878    -0.20900
C3349       C  0.72838689  0.75019329  0.03206206    -0.07400
C3350       C  0.70025774  0.71327212  0.02880723     0.13500
C3351       C  0.70483977  0.68178317  0.03687746    -0.24200
H3352       H  0.64581342  0.67697722  0.01576424     0.14700
H3353       H  0.74340751  0.80648156  0.02760840     0.14800
C3354       C  0.68427738  0.80244787  0.00680093    -0.24200
H3355       H  0.67924849  0.65493201  0.03455784     0.05000
H3356       H  0.71204188  0.68500962  0.05653651     0.08200
H3357       H  0.72649711  0.68083923  0.02593043     0.08200
H3358       H  0.66038662  0.80112544  0.01634277     0.08200
H3359       H  0.68075816  0.80212404  0.98669005     0.08200
H3360       H  0.70876493  0.82916519  0.01153367     0.05000
loop_ 
_geom_bond_atom_site_label_1 
_geom_bond_atom_site_label_2 
_geom_bond_distance 
_geom_bond_site_symmetry_2 
_ccdc_geom_bond_type 
O1          Cr19   1.940       .  S
O1            C9   1.250       .  A
O2          Cr19   2.034   1_554  S
O2            C3   1.274       .  A
C3            O4   1.257   1_554  A
C3          C746   1.487   1_455  S
O4          Cr20   1.950       .  S
O5          Cr20   2.019       .  S
O5         C1686   1.269   1_455  A
C6            O7   1.254       .  A
C6         O1685   1.269       .  A
C6          C778   1.489       .  S
O7        Cr1701   1.960       .  S
O8          Cr21   2.042       .  S
O8            C9   1.270       .  A
C9         C2490   1.493   1_455  S
O10         Cr19   2.039       .  S
O10          C18   1.273       .  A
O11         Cr19   1.963       .  S
O11          C12   1.253       .  A
C12          O13   1.268       .  A
C12         C826   1.494   1_556  S
O13         Cr20   2.019       .  S
O14         Cr20   1.967       .  S
O14          C15   1.261       .  A
C15          O16   1.275       .  A
C15         C762   1.481       .  S
O16         Cr21   2.037       .  S
O17         Cr21   1.936       .  S
O17          C18   1.254       .  A
C18         C794   1.491       .  S
Cr19         O22   1.759       .  S
Cr20         O22   1.763       .  S
Cr21       O1687   1.960   1_455  S
Cr21         O22   1.764       .  S
O23         Cr41   1.956       .  S
O23          C31   1.255       .  A
O24         Cr41   2.026       .  S
O24          C25   1.271       .  A
C25          O26   1.262       .  A
C25         C685   1.484       .  S
O26         Cr42   1.963       .  S
O27         Cr42   2.011       .  S
O27         C868   1.263       .  A
C28         O867   1.264   1_545  A
C28         O869   1.258       .  A
C28         C781   1.492       .  S
O29         Cr43   1.969       .  S
O29         C868   1.257       .  A
O30         Cr43   2.040       .  S
O30          C31   1.272       .  A
C31        C1541   1.496       .  S
O32         Cr41   2.024       .  S
O32          C40   1.270       .  A
O33         Cr41   1.967       .  S
O33          C34   1.256       .  A
C34          O35   1.265       .  A
C34         C714   1.494       .  S
O35         Cr42   2.017       .  S
O36         Cr42   1.972       .  S
O36          C37   1.263       .  A
C37          O38   1.276       .  A
C37         C730   1.484       .  S
O38         Cr43   2.038       .  S
O39         Cr43   1.942       .  S
O39          C40   1.253       .  A
C40         C797   1.481       .  S
Cr41         O44   1.768       .  S
Cr42         O44   1.770       .  S
Cr43         O44   1.767       .  S
O45         Cr63   1.999       .  S
O45          C53   1.262       .  A
O46         Cr63   1.990       .  S
O46          C47   1.267       .  A
C47          O48   1.266       .  A
C47         C586   1.491       .  S
O48         Cr64   2.000       .  S
O49         Cr64   1.998       .  S
O49          C50   1.265       .  A
C50          O51   1.254       .  A
C50         C618   1.483       .  S
O51         Cr65   1.967       .  S
O52         Cr65   2.007       .  S
O52          C53   1.267       .  A
C53         C653   1.486       .  S
O54         Cr63   1.993       .  S
O54          C62   1.264       .  A
O55         Cr63   1.997       .  S
O55          C56   1.259       .  A
C56          O57   1.263       .  A
C56         C666   1.498       .  S
O57         Cr64   1.997       .  S
O58         Cr64   1.990       .  S
O58          C59   1.262       .  A
C59          O60   1.265       .  A
C59         C602   1.476       .  S
O60         Cr65   1.996       .  S
O61         Cr65   1.976       .  S
O61          C62   1.258       .  A
C62         C634   1.463       .  S
Cr63         O66   1.772       .  S
Cr64         O66   1.766       .  S
Cr65         O66   1.767       .  S
O67         Cr85   1.998       .  S
O67          C75   1.262       .  A
O68         Cr85   1.989       .  S
O68          C69   1.266       .  A
C69          O70   1.268       .  A
C69         C522   1.487   1_455  S
O70         Cr86   2.005       .  S
O71         Cr86   1.987       .  S
O71        C1752   1.261   1_455  A
C72        O1751   1.260       .  A
C72        O1753   1.256       .  A
C72         C621   1.465       .  S
O73         Cr87   1.976       .  S
O73        C1752   1.255   1_455  A
O74         Cr87   2.003       .  S
O74          C75   1.268       .  A
C75        C2221   1.481   1_455  S
O76         Cr85   1.999       .  S
O76          C84   1.265       .  A
O77         Cr85   1.998       .  S
O77          C78   1.260       .  A
C78          O79   1.258       .  A
C78         C554   1.485       .  S
O79         Cr86   1.984       .  S
O80         Cr86   2.002       .  S
O80          C81   1.268       .  A
C81          O82   1.266       .  A
C81         C570   1.496       .  S
O82         Cr87   1.994       .  S
O83         Cr87   1.973       .  S
O83          C84   1.257       .  A
C84         C637   1.485       .  S
Cr85         O88   1.771       .  S
Cr86         O88   1.766       .  S
Cr87         O88   1.768       .  S
O89        Cr107   1.934       .  S
O89          C97   1.247       .  A
O90        Cr107   2.030       .  S
O90          C91   1.273       .  A
C91          O92   1.258       .  A
C91         C605   1.481   1_545  S
O92        Cr108   1.955       .  S
O93        Cr108   2.033       .  S
O93         C934   1.272   1_545  A
C94          O95   1.256       .  A
C94         O933   1.272       .  A
C94         C490   1.474       .  S
O95        Cr949   1.955       .  S
O96        Cr109   2.046       .  S
O96          C97   1.269       .  A
C97        C1397   1.489   1_545  S
O98        Cr107   2.032       .  S
O98         C106   1.272       .  A
O99        Cr107   1.949       .  S
O99         C100   1.248       .  A
C100        O101   1.271       .  A
C100        C538   1.499       .  S
O101       Cr108   2.039       .  S
O102       Cr108   1.978       .  S
O102        C103   1.261       .  A
C103        O104   1.273       .  A
C103        C749   1.499       .  S
O104       Cr109   2.024       .  S
O105       Cr109   1.935       .  S
O105        C106   1.251       .  A
C106        C509   1.467       .  S
Cr107       O110   1.761       .  S
Cr108       O110   1.769       .  S
Cr109       O935   1.957   1_545  S
Cr109       O110   1.766       .  S
O111       Cr129   1.995       .  S
O111        C119   1.262       .  A
O112       Cr129   1.992   1_556  S
O112        C113   1.265       .  A
C113        O114   1.269   1_556  A
C113        C733   1.492       .  S
O114       Cr130   2.013       .  S
O115       Cr130   1.981       .  S
O115        C116   1.260       .  A
C116        O117   1.260       .  A
C116        C493   1.473       .  S
O117       Cr131   1.993       .  S
O118       Cr131   1.996       .  S
O118        C119   1.266       .  A
C119        C829   1.475       .  S
O120       Cr129   1.994       .  S
O120        C128   1.265       .  A
O121       Cr129   2.005       .  S
O121        C122   1.261       .  A
C122        O123   1.257       .  A
C122        C813   1.486       .  S
O123       Cr130   1.974       .  S
O124       Cr130   2.005       .  S
O124        C125   1.270       .  A
C125        O126   1.265       .  A
C125        C525   1.502       .  S
O126       Cr131   1.994       .  S
O127       Cr131   1.993       .  S
O127        C128   1.259       .  A
C128        C506   1.472       .  S
Cr129       O132   1.770       .  S
Cr130       O132   1.763       .  S
Cr131       O132   1.770       .  S
O133       Cr151   1.994       .  S
O133        C141   1.262       .  A
O134       Cr151   1.977       .  S
O134        C135   1.261       .  A
C135        O136   1.270       .  A
C135        C765   1.490       .  S
O136       Cr152   2.011       .  S
O137       Cr152   1.986       .  S
O137        C138   1.261       .  A
C138        O139   1.257       .  A
C138        C461   1.466       .  S
O139       Cr153   1.976       .  S
O140       Cr153   1.995       .  S
O140        C141   1.264       .  A
C141        C717   1.479       .  S
O142       Cr151   1.984       .  S
O142        C150   1.265       .  A
O143       Cr151   2.007       .  S
O143        C144   1.261       .  A
C144        O145   1.259       .  A
C144        C698   1.486       .  S
O145       Cr152   1.986       .  S
O146       Cr152   2.002       .  S
O146        C147   1.265       .  A
C147        O148   1.268       .  A
C147        C442   1.499       .  S
O148       Cr153   1.996       .  S
O149       Cr153   1.984       .  S
O149        C150   1.258       .  A
C150        C477   1.475       .  S
Cr151       O154   1.772       .  S
Cr152       O154   1.768       .  S
Cr153       O154   1.768       .  S
O155       Cr173   1.954       .  S
O155        C163   1.251       .  A
O156       Cr173   2.030       .  S
O156        C157   1.274       .  A
C157        O158   1.261       .  A
C157        C394   1.476       .  S
O158       Cr174   1.960       .  S
O159       Cr174   2.022       .  S
O159       C1840   1.268       .  A
C160        O161   1.254       .  A
C160       O1839   1.268   1_455  A
C160        C458   1.481       .  S
O161      Cr1855   1.957   1_455  S
O162       Cr175   2.016       .  S
O162        C163   1.264       .  A
C163       C2093   1.467       .  S
O164       Cr173   2.027       .  S
O164        C172   1.273       .  A
O165       Cr173   1.960       .  S
O165        C166   1.252       .  A
C166        O167   1.265       .  A
C166        C429   1.479       .  S
O167       Cr174   2.029       .  S
O168       Cr174   1.980       .  S
O168        C169   1.265       .  A
C169        O170   1.269       .  A
C169        C682   1.496       .  S
O170       Cr175   2.019       .  S
O171       Cr175   1.926       .  S
O171        C172   1.249       .  A
C172        C474   1.473       .  S
Cr173       O176   1.769       .  S
Cr174       O176   1.772       .  S
Cr175      O1841   1.958       .  S
Cr175       O176   1.768       .  S
O177       Cr195   1.948       .  S
O177        C185   1.252       .  A
O178       Cr195   2.037       .  S
O178        C179   1.276       .  A
C179        O180   1.259       .  A
C179        C314   1.496       .  S
O180       Cr196   1.957       .  S
O181       Cr196   2.016       .  S
O181       C1862   1.266       .  A
C182        O183   1.258       .  A
C182       O1861   1.265   1_455  A
C182        C330   1.489       .  S
O183      Cr1877   1.965   1_455  S
O184       Cr197   2.034       .  S
O184        C185   1.268       .  A
C185       C2042   1.491       .  S
O186       Cr195   2.032       .  S
O186        C194   1.273       .  A
O187       Cr195   1.969       .  S
O187        C188   1.255       .  A
C188        O189   1.265       .  A
C188        C378   1.497       .  S
O189       Cr196   2.018       .  S
O190       Cr196   1.971       .  S
O190        C191   1.261       .  A
C191        O192   1.272       .  A
C191        C589   1.473       .  S
O192       Cr197   2.026       .  S
O193       Cr197   1.937       .  S
O193        C194   1.251       .  A
C194        C349   1.473       .  S
Cr195       O198   1.761       .  S
Cr196       O198   1.764       .  S
Cr197      O1863   1.967       .  S
Cr197       O198   1.769       .  S
O199       Cr217   1.960       .  S
O199        C207   1.253       .  A
O200       Cr217   2.035       .  S
O200        C201   1.276       .  A
C201        O202   1.261       .  A
C201        C573   1.474   1_545  S
O202       Cr218   1.956       .  S
O203       Cr218   2.026       .  S
O203       C1044   1.268   1_545  A
C204        O205   1.250       .  A
C204       O1043   1.265       .  A
C204        C333   1.489       .  S
O205      Cr1059   1.962       .  S
O206       Cr219   2.026       .  S
O206        C207   1.267       .  A
C207       C1509   1.483   1_545  S
O208       Cr217   2.028       .  S
O208        C216   1.273       .  A
O209       Cr217   1.977       .  S
O209        C210   1.255       .  A
C210        O211   1.263       .  A
C210        C650   1.503       .  S
O211       Cr218   2.021       .  S
O212       Cr218   1.974       .  S
O212        C213   1.263       .  A
C213        O214   1.275       .  A
C213        C298   1.483       .  S
O214       Cr219   2.036       .  S
O215       Cr219   1.937       .  S
O215        C216   1.250       .  A
C216        C346   1.492       .  S
Cr217       O220   1.771       .  S
Cr218       O220   1.774       .  S
Cr219      O1045   1.961   1_545  S
Cr219       O220   1.768       .  S
O221       Cr239   1.940       .  S
O221        C229   1.248       .  A
O222       Cr239   2.047       .  S
O222        C223   1.279       .  A
C223        O224   1.262       .  A
C223        C445   1.495       .  S
O224       Cr240   1.963       .  S
O225       Cr240   2.007       .  S
O225       C1066   1.264       .  A
C226       O1065   1.263   1_545  A
C226       O1067   1.253       .  A
C226        C269   1.488       .  S
O227       Cr241   1.965       .  S
O227       C1066   1.257       .  A
O228       Cr241   2.030       .  S
O228        C229   1.267       .  A
C229       C1266   1.478       .  S
O230       Cr239   2.031       .  S
O230        C238   1.273       .  A
O231       Cr239   1.960       .  S
O231        C232   1.249       .  A
C232        O233   1.263       .  A
C232        C410   1.487       .  S
O233       Cr240   2.020       .  S
O234       Cr240   1.983       .  S
O234        C235   1.264       .  A
C235        O236   1.273       .  A
C235        C317   1.499       .  S
O236       Cr241   2.019       .  S
O237       Cr241   1.935       .  S
O237        C238   1.250       .  A
C238        C282   1.474       .  S
Cr239       O242   1.771       .  S
Cr240       O242   1.774       .  S
Cr241       O242   1.774       .  S
O243       Cr261   1.998       .  S
O243        C251   1.265       .  A
O244       Cr261   1.984       .  S
O244        C245   1.263       .  A
C245        O246   1.270       .  A
C245        C301   1.498       .  S
O246       Cr262   2.012       .  S
O247       Cr262   1.984       .  S
O247        C248   1.260       .  A
C248        O249   1.257       .  A
C248        C266   1.467       .  S
O249       Cr263   1.981       .  S
O250       Cr263   2.000       .  S
O250        C251   1.267       .  A
C251        C381   1.486       .  S
O252       Cr261   1.995       .  S
O252        C260   1.265       .  A
O253       Cr261   2.001       .  S
O253        C254   1.260       .  A
C254        O255   1.256       .  A
C254        C365   1.491       .  S
O255       Cr262   1.974       .  S
O256       Cr262   2.006       .  S
O256        C257   1.269       .  A
C257        O258   1.267       .  A
C257        C397   1.499       .  S
O258       Cr263   2.000       .  S
O259       Cr263   1.982       .  S
O259        C260   1.256       .  A
C260        C285   1.476       .  S
Cr261       O264   1.773       .  S
Cr262       O264   1.770       .  S
Cr263       O264   1.770       .  S
C265        C266   1.399       .  A
C265        C270   1.403       .  A
C265        H272   1.084       .  S
C266        C267   1.408       .  A
C267        C268   1.402       .  A
C267        C274   1.507       .  S
C268        C269   1.410       .  A
C268        H273   1.083       .  S
C269        C270   1.421       .  A
C270        C271   1.509       .  S
C271        H275   1.111       .  S
C271        H276   1.110       .  S
C271        H277   1.110       .  S
C274        H278   1.110       .  S
C274        H279   1.110       .  S
C274        H280   1.111       .  S
C281        C282   1.398       .  A
C281        C286   1.404       .  A
C281        H288   1.084       .  S
C282        C283   1.420       .  A
C283        C284   1.399       .  A
C283        C290   1.510       .  S
C284        C285   1.398       .  A
C284        H289   1.085       .  S
C285        C286   1.421       .  A
C286        C287   1.509       .  S
C287        H291   1.111       .  S
C287        H292   1.111       .  S
C287        H293   1.109       .  S
C290        H294   1.108       .  S
C290        H295   1.111       .  S
C290        H296   1.111       .  S
C297        C298   1.403       .  A
C297        C302   1.409       .  A
C297        H304   1.085       .  S
C298        C299   1.412       .  A
C299        C300   1.406       .  A
C299        C306   1.507       .  S
C300        C301   1.410       .  A
C300        H305   1.084       .  S
C301        C302   1.422       .  A
C302        C303   1.508       .  S
C303        H307   1.111       .  S
C303        H308   1.110       .  S
C303        H309   1.110       .  S
C306        H310   1.109       .  S
C306        H311   1.109       .  S
C306        H312   1.111       .  S
C313        C318   1.411   1_655  A
C313       C1994   1.406   1_655  A
C313       H2000   1.084       .  S
C314       C1993   1.406       .  A
C314       C1995   1.421       .  A
C315        C316   1.400       .  A
C315       C1994   1.420       .  A
C315        C322   1.512       .  S
C316        C317   1.406       .  A
C316        H321   1.083       .  S
C317        C318   1.422       .  A
C318        C319   1.508       .  S
C319        H323   1.111   1_455  S
C319        H324   1.110       .  S
C319        H325   1.111       .  S
H320       C1993   1.083       .  S
C322        H327   1.111       .  S
C322        H328   1.111       .  S
C322       H2006   1.110       .  S
H326       C2002   1.110       .  S
C329        C330   1.406       .  A
C329        C334   1.402       .  A
C329        H336   1.084       .  S
C330        C331   1.420       .  A
C331        C332   1.403       .  A
C331        C338   1.509       .  S
C332        C333   1.405       .  A
C332        H337   1.083       .  S
C333        C334   1.420       .  A
C334        C335   1.511       .  S
C335        H339   1.111       .  S
C335        H341   1.110       .  S
C335       H1180   1.110       .  S
C338        H343   1.111   1_455  S
C338        H344   1.111       .  S
C338       H2022   1.110   1_455  S
H340       C1175   1.110       .  S
H342       C2018   1.110       .  S
C345        C346   1.404       .  A
C345        C350   1.402       .  A
C345        H352   1.084       .  S
C346        C347   1.431       .  A
C347        C348   1.401       .  A
C347        C354   1.512       .  S
C348        C349   1.394       .  A
C348        H353   1.085       .  S
C349        C350   1.417       .  A
C350        C351   1.509       .  S
C351        H355   1.111       .  S
C351        H356   1.110       .  S
C351        H357   1.109       .  S
C354        H358   1.110       .  S
C354        H359   1.110       .  S
C354        H360   1.111       .  S
C361       C2042   1.409       .  A
C361       C2046   1.398       .  A
C361        H368   1.084       .  S
C362       C1865   1.486   1_455  S
C362        C363   1.412       .  A
C362       C2041   1.405       .  A
C363        C364   1.410       .  A
C363        C370   1.506       .  S
C364        C365   1.412       .  A
C364        H369   1.084       .  S
C365        C366   1.419       .  A
C366       C2041   1.399       .  A
C366       C2047   1.511       .  S
C367       C2046   1.511       .  S
C367        H371   1.111       .  S
C367        H372   1.110       .  S
C367       H2053   1.110       .  S
C370        H374   1.111       .  S
C370        H375   1.110       .  S
C370        H376   1.111       .  S
H373       C2047   1.110       .  S
C377        C378   1.412       .  A
C377        C382   1.407       .  A
C377        H384   1.083       .  S
C378        C379   1.419       .  A
C379        C380   1.405       .  A
C379        C386   1.508       .  S
C380        C381   1.406       .  A
C380        H385   1.084       .  S
C381        C382   1.412       .  A
C382        C383   1.507       .  S
C383        H387   1.111       .  S
C383        H388   1.111       .  S
C383        H389   1.109       .  S
C386        H390   1.110       .  S
C386        H391   1.110       .  S
C386        H392   1.111       .  S
C393        C398   1.412       .  A
C393       C2074   1.403   1_455  A
C393        H400   1.085       .  S
C394        C395   1.409       .  A
C394       C2073   1.402       .  A
C395       C2076   1.402       .  A
C395        C402   1.508       .  S
C396        C397   1.409       .  A
C396       C2075   1.404       .  A
C396        H401   1.083       .  S
C397        C398   1.421       .  A
C398        C399   1.506       .  S
C399        H403   1.111       .  S
C399        H404   1.109       .  S
C399        H405   1.109       .  S
C402        H406   1.111       .  S
C402        H407   1.109       .  S
C402        H408   1.111       .  S
C409        C410   1.403       .  A
C409       C2094   1.405       .  A
C409        H416   1.083       .  S
C410        C411   1.423       .  A
C411        C412   1.406       .  A
C411        C418   1.509       .  S
C412        C413   1.399       .  A
C412        H417   1.083       .  S
C413       C1843   1.475   1_455  S
C413       C2094   1.414       .  A
C414       C2089   1.406       .  A
C414       C2093   1.410       .  A
C414        C415   1.507       .  S
C415        H419   1.111       .  S
C415        H420   1.111       .  S
C415        H421   1.110       .  S
C418        H422   1.110       .  S
C418        H423   1.109       .  S
C418        H424   1.111       .  S
C425        C426   1.411       .  A
C425        C430   1.396       .  A
C425        H432   1.084       .  S
C426       C1069   1.498   1_545  S
C426        C427   1.418       .  A
C427        C428   1.416       .  A
C427       C1274   1.504       .  S
C428        C429   1.407       .  A
C428        H433   1.084       .  S
C429        C430   1.408       .  A
C430        C431   1.510       .  S
C431        H435   1.111       .  S
C431        H436   1.109       .  S
C431        H437   1.110       .  S
C434       C1267   1.506       .  S
C434        H438   1.111       .  S
C434        H439   1.110       .  S
C434        H440   1.111       .  S
C441        C442   1.407       .  A
C441        C446   1.405       .  A
C441        H448   1.084       .  S
C442        C443   1.427       .  A
C443       C1284   1.408   1_545  A
C443        C450   1.509       .  S
C444        C445   1.404       .  A
C444       C1283   1.404       .  A
C444        H449   1.085       .  S
C445       C1286   1.422       .  A
C446       C1285   1.415       .  A
C446        C447   1.509       .  S
C447        H451   1.110       .  S
C447        H452   1.110       .  S
C447        H453   1.108       .  S
C450        H454   1.110       .  S
C450        H455   1.109       .  S
C450       H1296   1.111   1_545  S
H456       C1290   1.111       .  S
C457        C458   1.408       .  A
C457        C462   1.401       .  A
C457        H464   1.084       .  S
C458        C459   1.419       .  A
C459        C460   1.401       .  A
C459        C466   1.509       .  S
C460        C461   1.401       .  A
C460        H465   1.084       .  S
C461        C462   1.408       .  A
C462        C463   1.507       .  S
C463        H467   1.111       .  S
C463        H468   1.110       .  S
C463        H469   1.110       .  S
C466        H470   1.110       .  S
C466        H471   1.110       .  S
C466        H472   1.111       .  S
C473        C474   1.398       .  A
C473        C478   1.402       .  A
C473        H480   1.084       .  S
C474        C475   1.422       .  A
C475        C476   1.395       .  A
C475        C482   1.511       .  S
C476        C477   1.397       .  A
C476        H481   1.083       .  S
C477        C478   1.422       .  A
C478        C479   1.509       .  S
C479        H483   1.111       .  S
C479        H484   1.111       .  S
C479        H485   1.109       .  S
C482        H486   1.107       .  S
C482        H487   1.108       .  S
C482        H488   1.111       .  S
C489        C490   1.400       .  A
C489        C494   1.403       .  A
C489        H496   1.084       .  S
C490        C491   1.418       .  A
C491        C492   1.402       .  A
C491        C498   1.509       .  S
C492        C493   1.398       .  A
C492        H497   1.084       .  S
C493        C494   1.418       .  A
C494        C495   1.509       .  S
C495        H499   1.111       .  S
C495        H500   1.110       .  S
C495        H501   1.109       .  S
C498        H502   1.110       .  S
C498        H503   1.109       .  S
C498        H504   1.111       .  S
C505        C506   1.399       .  A
C505        C510   1.399       .  A
C505        H512   1.084       .  S
C506        C507   1.417       .  A
C507        C508   1.403       .  A
C507        C514   1.505       .  S
C508        C509   1.398       .  A
C508        H513   1.084       .  S
C509        C510   1.416       .  A
C510        C511   1.510       .  S
C511        H515   1.111       .  S
C511        H516   1.108       .  S
C511        H517   1.111       .  S
C514        H518   1.109       .  S
C514        H519   1.109       .  S
C514        H520   1.111       .  S
C521        C526   1.410       .  A
C521       C2202   1.405       .  A
C521        H528   1.085       .  S
C522        C523   1.414   1_655  A
C522       C2201   1.404       .  A
C523       C2204   1.404   1_455  A
C523        C530   1.509       .  S
C524        C525   1.410       .  A
C524       C2203   1.403       .  A
C524        H529   1.083       .  S
C525        C526   1.422       .  A
C526        C527   1.506       .  S
C527        H531   1.107       .  S
C527        H532   1.110       .  S
C527        H533   1.111       .  S
C530        H534   1.110       .  S
C530        H535   1.109       .  S
C530        H536   1.111       .  S
C537        C538   1.404       .  A
C537        C542   1.405       .  A
C537        H544   1.084       .  S
C538        C539   1.431       .  A
C539        C540   1.406       .  A
C539        C546   1.510       .  S
C540        C541   1.396       .  A
C540       H2225   1.085       .  S
C541       C1755   1.480       .  S
C541        C542   1.417       .  A
C542        C543   1.509       .  S
C543        H547   1.111       .  S
C543        H548   1.111       .  S
C543        H549   1.108       .  S
H545       C2220   1.084       .  S
C546        H550   1.110       .  S
C546        H551   1.110       .  S
C546       H2232   1.111       .  S
H552       C2226   1.111       .  S
C553        C554   1.408       .  A
C553        C558   1.405       .  A
C553        H560   1.084       .  S
C554        C555   1.417       .  A
C555        C556   1.406       .  A
C555        C562   1.507       .  S
C556        C557   1.401       .  A
C556       H1401   1.084       .  S
C557        C937   1.470       .  S
C557        C558   1.409       .  A
C558        C559   1.507       .  S
C559        H563   1.111       .  S
C559        H564   1.111       .  S
C559        H565   1.110       .  S
H561       C1396   1.084   1_545  S
C562        H566   1.109       .  S
C562        H567   1.111       .  S
C562        H568   1.111       .  S
C569        C570   1.410       .  A
C569        C574   1.403       .  A
C569        H576   1.084       .  S
C570        C571   1.421       .  A
C571        C572   1.411       .  A
C571        C578   1.508       .  S
C572       C1413   1.403       .  A
C572        H577   1.085       .  S
C573       C1412   1.401       .  A
C573       C1414   1.409   1_565  A
C574       C1413   1.407       .  A
C574       C1415   1.508       .  S
C575       C1414   1.508       .  S
C575        H580   1.110       .  S
C575        H581   1.110       .  S
C575       H1419   1.111       .  S
C578        H582   1.111       .  S
C578        H583   1.110       .  S
C578        H584   1.111       .  S
H579       C1415   1.111       .  S
C585        C586   1.408       .  A
C585        C590   1.407       .  A
C585        H592   1.084       .  S
C586        C587   1.425       .  A
C587        C588   1.402       .  A
C587        C594   1.509       .  S
C588        C589   1.397       .  A
C588        H593   1.085       .  S
C589        C590   1.411       .  A
C590        C591   1.508       .  S
C591        H595   1.111       .  S
C591        H596   1.110       .  S
C591        H597   1.111       .  S
C594        H598   1.110       .  S
C594        H599   1.108       .  S
C594        H600   1.111       .  S
C601        C602   1.402       .  A
C601        C606   1.410       .  A
C601        H608   1.084       .  S
C602        C603   1.412       .  A
C603        C604   1.400       .  A
C603        C610   1.510       .  S
C604       C1445   1.407       .  A
C604        H609   1.084       .  S
C605       C1444   1.401       .  A
C605       C1446   1.417       .  A
C606       C1445   1.419       .  A
C606       C1447   1.505       .  S
C607       C1446   1.504       .  S
C607        H611   1.111       .  S
C607        H612   1.108       .  S
C607        H613   1.110   1_565  S
C610        H614   1.111       .  S
C610        H615   1.109       .  S
C610        H616   1.111       .  S
C617        C618   1.403       .  A
C617        C622   1.402       .  A
C617        H624   1.084       .  S
C618        C619   1.427       .  A
C619        C620   1.400       .  A
C619        C626   1.510       .  S
C620        C621   1.393       .  A
C620        H625   1.085       .  S
C621        C622   1.413       .  A
C622       C2303   1.507       .  S
C623       C2302   1.510   1_455  S
C623        H627   1.111   1_455  S
C623        H628   1.110       .  S
C623        H629   1.109       .  S
C626        H630   1.109       .  S
C626        H631   1.110       .  S
C626        H632   1.111       .  S
C633        C634   1.406       .  A
C633        C638   1.401       .  A
C633        H640   1.082       .  S
C634        C635   1.404       .  A
C635        C636   1.396       .  A
C635        C642   1.509       .  S
C636        C637   1.415       .  A
C636        H641   1.084       .  S
C637        C638   1.414       .  A
C638        C639   1.509       .  S
C639        H643   1.111       .  S
C639        H644   1.110       .  S
C639        H645   1.110       .  S
C642        H646   1.107       .  S
C642        H647   1.111       .  S
C642        H648   1.110       .  S
C649        C650   1.413       .  A
C649        C654   1.409       .  A
C649        H656   1.083       .  S
C650        C651   1.422       .  A
C651        C652   1.408       .  A
C651        C658   1.508       .  S
C652        C653   1.405       .  A
C652        H657   1.084       .  S
C653        C654   1.411       .  A
C654        C655   1.508       .  S
C655        H659   1.111       .  S
C655        H660   1.111       .  S
C655        H661   1.110       .  S
C658        H662   1.110       .  S
C658        H663   1.110       .  S
C658        H664   1.111       .  S
C665        C666   1.404       .  A
C665       C1510   1.404       .  A
C665        H672   1.084       .  S
C666        C667   1.427       .  A
C667        C668   1.410       .  A
C667        C674   1.508       .  S
C668        C669   1.399       .  A
C668        H673   1.085       .  S
C669       C1047   1.483       .  S
C669       C1510   1.416       .  A
C670       C1505   1.407       .  A
C670       C1509   1.415       .  A
C670        C671   1.508   1_565  S
C671        H675   1.111       .  S
C671        H676   1.111       .  S
C671        H677   1.109       .  S
C674        H678   1.110       .  S
C674        H679   1.110       .  S
C674        H680   1.111       .  S
C681        C682   1.410       .  A
C681        C686   1.408   1_545  A
C681        H688   1.083       .  S
C682        C683   1.422       .  A
C683       C1524   1.402       .  A
C683        C690   1.511       .  S
C684        C685   1.401       .  A
C684       C1523   1.399       .  A
C684        H689   1.085       .  S
C685       C1526   1.414       .  A
C686       C1525   1.414   1_565  A
C686        C687   1.507       .  S
C687        H691   1.111       .  S
C687        H692   1.110       .  S
C687        H693   1.111       .  S
C690        H694   1.109       .  S
C690        H695   1.109       .  S
C690       H1536   1.111       .  S
H696       C1530   1.111       .  S
C697        C698   1.407       .  A
C697        C702   1.414       .  A
C697        H704   1.084       .  S
C698        C699   1.412       .  A
C699       C1540   1.401       .  A
C699       C1546   1.510       .  S
C700       C1539   1.405       .  A
C700       C1541   1.409       .  A
C700        H705   1.084       .  S
C701        C871   1.504   1_545  S
C701        C702   1.420       .  A
C701       C1540   1.413       .  A
C702        C703   1.506       .  S
C703        H707   1.111       .  S
C703        H708   1.110       .  S
C703        H709   1.110       .  S
C706       C1539   1.510       .  S
C706        H710   1.111       .  S
C706        H711   1.110       .  S
C706        H712   1.111       .  S
C713        C714   1.411       .  A
C713        C718   1.404       .  A
C713        H720   1.083       .  S
C714        C715   1.420       .  A
C715        C716   1.403       .  A
C715        C722   1.509       .  S
C716        C717   1.404       .  A
C716        H721   1.084       .  S
C717        C718   1.410       .  A
C718        C719   1.507       .  S
C719        H723   1.111       .  S
C719        H724   1.111       .  S
C719        H725   1.110       .  S
C722        H726   1.111       .  S
C722        H727   1.110       .  S
C722        H728   1.110       .  S
C729        C730   1.403       .  A
C729        C734   1.407       .  A
C729        H736   1.084       .  S
C730        C731   1.413       .  A
C731        C732   1.411       .  A
C731        C738   1.506       .  S
C732        C733   1.409       .  A
C732        H737   1.084       .  S
C733        C734   1.418       .  A
C734        C735   1.508       .  S
C735        H739   1.111       .  S
C735        H740   1.111       .  S
C735        H741   1.109       .  S
C738        H742   1.111       .  S
C738        H743   1.110       .  S
C738        H744   1.110       .  S
C745        C746   1.403   1_455  A
C745       C2430   1.411   1_455  A
C745        H752   1.084       .  S
C746       C2427   1.419       .  A
C747        C748   1.400       .  A
C747       C2426   1.424       .  A
C747        C754   1.513       .  S
C748        C749   1.403       .  A
C748        H753   1.083       .  S
C749        C750   1.424       .  A
C750       C2425   1.412       .  A
C750        C751   1.508       .  S
C751        H756   1.110       .  S
C751        H757   1.111       .  S
C751       H2435   1.111       .  S
C754        H758   1.110       .  S
C754        H759   1.110   1_554  S
C754        H760   1.111       .  S
H755       C2431   1.111   1_455  S
C761        C762   1.404       .  A
C761        C766   1.407       .  A
C761        H768   1.084       .  S
C762        C763   1.413       .  A
C763        C764   1.405       .  A
C763        C770   1.508       .  S
C764        C765   1.407       .  A
C764        H769   1.084       .  S
C765        C766   1.419       .  A
C766        C767   1.508       .  S
C767        H771   1.111       .  S
C767        H772   1.110       .  S
C767        H773   1.110       .  S
C770        H774   1.110       .  S
C770        H775   1.110       .  S
C770        H776   1.111       .  S
C777        C778   1.405       .  A
C777        C782   1.403       .  A
C777        H784   1.084       .  S
C778        C779   1.420       .  A
C779        C780   1.402       .  A
C779        C786   1.510       .  S
C780        C781   1.406       .  A
C780        H785   1.084       .  S
C781        C782   1.421       .  A
C782       C1623   1.509       .  S
C783       C1622   1.509       .  S
C783        H788   1.109       .  S
C783        H789   1.110       .  S
C783       H1627   1.111       .  S
C786        H791   1.110       .  S
C786        H792   1.111       .  S
C786       H2470   1.109       .  S
H787       C1623   1.111       .  S
H790       C2466   1.109       .  S
C793        C794   1.413       .  A
C793        C798   1.400       .  A
C793        H800   1.083       .  S
C794        C795   1.413       .  A
C795        C796   1.404       .  A
C795        C802   1.506       .  S
C796        C797   1.410       .  A
C796        H801   1.084       .  S
C797        C798   1.409       .  A
C798        C799   1.508       .  S
C799        H803   1.111       .  S
C799        H804   1.110       .  S
C799        H805   1.110       .  S
C802        H806   1.106       .  S
C802        H807   1.110       .  S
C802        H808   1.111       .  S
C809        C810   1.412   1_554  A
C809        C814   1.398       .  A
C809       H2496   1.083       .  S
C810       C1689   1.497       .  S
C810        C811   1.416       .  A
C811        C812   1.412       .  A
C811        C818   1.505       .  S
C812        C813   1.409   1_556  A
C812        H817   1.084       .  S
C813        C814   1.414       .  A
C814        C815   1.512       .  S
C815        H821   1.110       .  S
C815       H2499   1.111       .  S
C815       H2500   1.110       .  S
H816       C2489   1.084   1_455  S
C818        H822   1.110       .  S
C818        H823   1.110       .  S
C818        H824   1.111       .  S
H819       C2495   1.111       .  S
H820       C2495   1.111       .  S
C825        C826   1.406       .  A
C825        C830   1.402       .  A
C825        H832   1.084       .  S
C826        C827   1.426       .  A
C827        C828   1.404       .  A
C827        C834   1.506       .  S
C828        C829   1.397       .  A
C828        H833   1.085       .  S
C829        C830   1.414       .  A
C830        C831   1.507       .  S
C831        H835   1.111       .  S
C831        H836   1.109       .  S
C831        H837   1.109       .  S
C834        H838   1.110       .  S
C834        H839   1.110   1_554  S
C834        H840   1.111       .  S
O841       Cr859   1.948       .  S
O841        C849   1.251       .  A
O842       Cr859   2.035   1_554  S
O842        C843   1.274       .  A
C843        O844   1.256   1_554  A
C843       C1586   1.495   1_455  S
O844       Cr860   1.948       .  S
O845       Cr860   2.033       .  S
O845       C2526   1.272   1_455  A
C846       O2525   1.270       .  A
C846        O847   1.254       .  A
C846       C1618   1.484       .  S
O847      Cr2541   1.958       .  S
O848       Cr861   2.048       .  S
O848        C849   1.270       .  A
C849       C3330   1.496   1_455  S
O850       Cr859   2.039       .  S
O850        C858   1.274       .  A
O851       Cr859   1.969       .  S
O851        C852   1.254       .  A
C852        O853   1.270       .  A
C852       C1666   1.502   1_556  S
O853       Cr860   2.027       .  S
O854       Cr860   1.972       .  S
O854        C855   1.261       .  A
C855        O856   1.275       .  A
C855       C1602   1.492       .  S
O856       Cr861   2.043       .  S
O857       Cr861   1.933       .  S
O857        C858   1.255       .  A
C858       C1634   1.488       .  S
Cr859       O862   1.764       .  S
Cr860       O862   1.764       .  S
Cr861      O2527   1.959   1_455  S
Cr861       O862   1.765       .  S
O863       Cr881   1.953       .  S
O863        C871   1.255       .  A
O864       Cr881   2.026       .  S
O864        C865   1.271       .  A
C865        O866   1.260       .  A
C865       C1525   1.489   1_565  S
O866       Cr882   1.961       .  S
O867       Cr882   2.011       .  S
C868       C1621   1.475       .  S
O869       Cr883   1.968   1_545  S
O870       Cr883   2.041       .  S
O870        C871   1.271       .  A
O872       Cr881   2.022       .  S
O872        C880   1.269       .  A
O873       Cr881   1.972       .  S
O873        C874   1.257       .  A
C874        O875   1.267       .  A
C874       C1554   1.497       .  S
O875       Cr882   2.022       .  S
O876       Cr882   1.965       .  S
O876        C877   1.262       .  A
C877        O878   1.275       .  A
C877       C1570   1.479       .  S
O878       Cr883   2.033       .  S
O879       Cr883   1.941       .  S
O879        C880   1.253       .  A
C880       C1637   1.478       .  S
Cr881       O884   1.764       .  S
Cr882       O884   1.768       .  S
Cr883       O884   1.768       .  S
O885       Cr903   1.993       .  S
O885        C893   1.262       .  A
O886       Cr903   1.995       .  S
O886        C887   1.268       .  A
C887        O888   1.268       .  A
C887       C1426   1.486       .  S
O888       Cr904   2.003       .  S
O889       Cr904   2.000       .  S
O889        C890   1.266       .  A
C890        O891   1.254       .  A
C890       C1458   1.495       .  S
O891       Cr905   1.972       .  S
O892       Cr905   2.014       .  S
O892        C893   1.267       .  A
C893       C1493   1.498       .  S
O894       Cr903   2.002       .  S
O894        C902   1.266       .  A
O895       Cr903   1.991       .  S
O895        C896   1.256       .  A
C896        O897   1.262       .  A
C896       C1506   1.499       .  S
O897       Cr904   2.005       .  S
O898       Cr904   1.979       .  S
O898        C899   1.261       .  A
C899        O900   1.267       .  A
C899       C1442   1.483       .  S
O900       Cr905   2.002       .  S
O901       Cr905   1.984       .  S
O901        C902   1.260       .  A
C902       C1474   1.476       .  S
Cr903       O906   1.776       .  S
Cr904       O906   1.770       .  S
Cr905       O906   1.773       .  S
O907       Cr925   2.000       .  S
O907        C915   1.264       .  A
O908       Cr925   1.993       .  S
O908        C909   1.265       .  A
C909        O910   1.269       .  A
C909       C1362   1.488   1_455  S
O910       Cr926   2.011       .  S
O911       Cr926   1.989       .  S
O911       C2592   1.259   1_455  A
C912       O2591   1.262       .  A
C912       O2593   1.255       .  A
C912       C1461   1.475       .  S
O913       Cr927   1.981       .  S
O913       C2592   1.255   1_455  A
O914       Cr927   2.001       .  S
O914        C915   1.269       .  A
C915       C3061   1.485   1_455  S
O916       Cr925   2.011       .  S
O916        C924   1.266       .  A
O917       Cr925   2.006       .  S
O917        C918   1.261       .  A
C918        O919   1.257       .  A
C918       C1394   1.495       .  S
O919       Cr926   1.975       .  S
O920       Cr926   2.011       .  S
O920        C921   1.271       .  A
C921        O922   1.265       .  A
C921       C1410   1.495       .  S
O922       Cr927   1.987       .  S
O923       Cr927   1.979       .  S
O923        C924   1.257       .  A
C924       C1477   1.493       .  S
Cr925       O928   1.772       .  S
Cr926       O928   1.767       .  S
Cr927       O928   1.770       .  S
O929       Cr947   1.953       .  S
O929        C937   1.250       .  A
O930       Cr947   2.028       .  S
O930        C931   1.272       .  A
C931        O932   1.260       .  A
C931       C1445   1.489       .  S
O932       Cr948   1.958       .  S
O933       Cr948   2.030       .  S
C934        O935   1.256       .  A
C934       C1330   1.477       .  S
O936       Cr949   2.026       .  S
O936        C937   1.265       .  A
O938       Cr947   2.030       .  S
O938        C946   1.272       .  A
O939       Cr947   1.958       .  S
O939        C940   1.251       .  A
C940        O941   1.270       .  A
C940       C1378   1.499       .  S
O941       Cr948   2.029       .  S
O942       Cr948   1.983       .  S
O942        C943   1.261       .  A
C943        O944   1.270       .  A
C943       C1589   1.499       .  S
O944       Cr949   2.016       .  S
O945       Cr949   1.934       .  S
O945        C946   1.251       .  A
C946       C1349   1.466       .  S
Cr947       O950   1.768       .  S
Cr948       O950   1.767       .  S
Cr949       O950   1.766       .  S
O951       Cr969   1.997       .  S
O951        C959   1.263       .  A
O952       Cr969   1.984   1_556  S
O952        C953   1.264       .  A
C953        O954   1.268   1_556  A
C953       C1573   1.481       .  S
O954       Cr970   2.007       .  S
O955       Cr970   1.985       .  S
O955        C956   1.260       .  A
C956        O957   1.258       .  A
C956       C1333   1.474       .  S
O957       Cr971   1.990       .  S
O958       Cr971   2.006       .  S
O958        C959   1.269       .  A
C959       C1669   1.482       .  S
O960       Cr969   1.992       .  S
O960        C968   1.264       .  A
O961       Cr969   2.005       .  S
O961        C962   1.261       .  A
C962        O963   1.257       .  A
C962       C1653   1.496   1_554  S
O963       Cr970   1.974       .  S
O964       Cr970   2.004       .  S
O964        C965   1.269       .  A
C965        O966   1.267       .  A
C965       C1365   1.502       .  S
O966       Cr971   1.996       .  S
O967       Cr971   1.991       .  S
O967        C968   1.259       .  A
C968       C1346   1.470       .  S
Cr969       O972   1.770       .  S
Cr970       O972   1.764       .  S
Cr971       O972   1.771       .  S
O973       Cr991   1.995       .  S
O973        C981   1.263       .  A
O974       Cr991   1.985       .  S
O974        C975   1.264       .  A
C975        O976   1.271       .  A
C975       C1605   1.497       .  S
O976       Cr992   2.016       .  S
O977       Cr992   1.987       .  S
O977        C978   1.261       .  A
C978        O979   1.259       .  A
C978       C1301   1.481       .  S
O979       Cr993   1.986       .  S
O980       Cr993   2.005       .  S
O980        C981   1.267       .  A
C981       C1557   1.491       .  S
O982       Cr991   1.993       .  S
O982        C990   1.265       .  A
O983       Cr991   1.999       .  S
O983        C984   1.260       .  A
C984        O985   1.259       .  A
C984       C1538   1.498       .  S
O985       Cr992   1.990       .  S
O986       Cr992   2.003       .  S
O986        C987   1.267       .  A
C987        O988   1.268       .  A
C987       C1282   1.496       .  S
O988       Cr993   2.006       .  S
O989       Cr993   1.987       .  S
O989        C990   1.258       .  A
C990       C1317   1.474       .  S
Cr991       O994   1.773       .  S
Cr992       O994   1.767       .  S
Cr993       O994   1.772       .  S
O995      Cr1013   1.960       .  S
O995       C1003   1.253       .  A
O996      Cr1013   2.028       .  S
O996        C997   1.273       .  A
C997        O998   1.260       .  A
C997       C1234   1.474       .  S
O998      Cr1014   1.956       .  S
O999      Cr1014   2.023       .  S
O999       C2680   1.268       .  A
C1000      O2679   1.268   1_455  A
C1000      O1001   1.258       .  A
C1000      C1298   1.477       .  S
O1001     Cr2695   1.970   1_455  S
O1002     Cr1015   2.018       .  S
O1002      C1003   1.264       .  A
C1003      C2933   1.477       .  S
O1004     Cr1013   2.028       .  S
O1004      C1012   1.272       .  A
O1005     Cr1013   1.964       .  S
O1005      C1006   1.254       .  A
C1006      O1007   1.266       .  A
C1006      C1269   1.486       .  S
O1007     Cr1014   2.023       .  S
O1008     Cr1014   1.985       .  S
O1008      C1009   1.265       .  A
C1009      O1010   1.267       .  A
C1009      C1522   1.495       .  S
O1010     Cr1015   2.011       .  S
O1011     Cr1015   1.938       .  S
O1011      C1012   1.252       .  A
C1012      C1314   1.469       .  S
Cr1013     O1016   1.774       .  S
Cr1014     O1016   1.772       .  S
Cr1015     O2681   1.968       .  S
Cr1015     O1016   1.766       .  S
O1017     Cr1035   1.950       .  S
O1017      C1025   1.253       .  A
O1018     Cr1035   2.030       .  S
O1018      C1019   1.274       .  A
C1019      O1020   1.260       .  A
C1019      C1154   1.492       .  S
O1020     Cr1036   1.963       .  S
O1021     Cr1036   2.012       .  S
O1021      C2702   1.265       .  A
C1022      O2701   1.263   1_455  A
C1022      O1023   1.257       .  A
C1022      C1170   1.492       .  S
O1023     Cr2717   1.968   1_455  S
O1024     Cr1037   2.024       .  S
O1024      C1025   1.267       .  A
C1025      C2882   1.479       .  S
O1026     Cr1035   2.025       .  S
O1026      C1034   1.271       .  A
O1027     Cr1035   1.963       .  S
O1027      C1028   1.255       .  A
C1028      O1029   1.264       .  A
C1028      C1218   1.490       .  S
O1029     Cr1036   2.016       .  S
O1030     Cr1036   1.977       .  S
O1030      C1031   1.262       .  A
C1031      O1032   1.274       .  A
C1031      C1429   1.488       .  S
O1032     Cr1037   2.024       .  S
O1033     Cr1037   1.945       .  S
O1033      C1034   1.253       .  A
C1034      C1189   1.472       .  S
Cr1035     O1038   1.763       .  S
Cr1036     O1038   1.768       .  S
Cr1037     O2703   1.967       .  S
Cr1037     O1038   1.768       .  S
O1039     Cr1057   1.953       .  S
O1039      C1047   1.251       .  A
O1040     Cr1057   2.034       .  S
O1040      C1041   1.276       .  A
C1041      O1042   1.262       .  A
C1041      C1413   1.476       .  S
O1042     Cr1058   1.961       .  S
O1043     Cr1058   2.019       .  S
C1044      O1045   1.252       .  A
C1044      C1173   1.493       .  S
O1046     Cr1059   2.027       .  S
O1046      C1047   1.268       .  A
O1048     Cr1057   2.030       .  S
O1048      C1056   1.274       .  A
O1049     Cr1057   1.978       .  S
O1049      C1050   1.255       .  A
C1050      O1051   1.263       .  A
C1050      C1490   1.495       .  S
O1051     Cr1058   2.017       .  S
O1052     Cr1058   1.975       .  S
O1052      C1053   1.264       .  A
C1053      O1054   1.277       .  A
C1053      C1138   1.482       .  S
O1054     Cr1059   2.041       .  S
O1055     Cr1059   1.937       .  S
O1055      C1056   1.250       .  A
C1056      C1186   1.492       .  S
Cr1057     O1060   1.771       .  S
Cr1058     O1060   1.774       .  S
Cr1059     O1060   1.771       .  S
O1061     Cr1079   1.938       .  S
O1061      C1069   1.252       .  A
O1062     Cr1079   2.039       .  S
O1062      C1063   1.277       .  A
C1063      O1064   1.261       .  A
C1063      C1285   1.478   1_565  S
O1064     Cr1080   1.962       .  S
O1065     Cr1080   2.011       .  S
C1066      C1109   1.471       .  S
O1067     Cr1081   1.967   1_545  S
O1068     Cr1081   2.039       .  S
O1068      C1069   1.270       .  A
O1070     Cr1079   2.029       .  S
O1070      C1078   1.270       .  A
O1071     Cr1079   1.959       .  S
O1071      C1072   1.250       .  A
C1072      O1073   1.264       .  A
C1072      C1250   1.479       .  S
O1073     Cr1080   2.023       .  S
O1074     Cr1080   1.969       .  S
O1074      C1075   1.263       .  A
C1075      O1076   1.280       .  A
C1075      C1157   1.497       .  S
O1076     Cr1081   2.036       .  S
O1077     Cr1081   1.941       .  S
O1077      C1078   1.251       .  A
C1078      C1122   1.476       .  S
Cr1079     O1082   1.768       .  S
Cr1080     O1082   1.775       .  S
Cr1081     O1082   1.768       .  S
O1083     Cr1101   1.995       .  S
O1083      C1091   1.264       .  A
O1084     Cr1101   1.993       .  S
O1084      C1085   1.265       .  A
C1085      O1086   1.269       .  A
C1085      C1141   1.504       .  S
O1086     Cr1102   2.007       .  S
O1087     Cr1102   1.985       .  S
O1087      C1088   1.259       .  A
C1088      O1089   1.260       .  A
C1088      C1106   1.470       .  S
O1089     Cr1103   1.988       .  S
O1090     Cr1103   1.995       .  S
O1090      C1091   1.266       .  A
C1091      C1221   1.484       .  S
O1092     Cr1101   1.999       .  S
O1092      C1100   1.267       .  A
O1093     Cr1101   2.007       .  S
O1093      C1094   1.263       .  A
C1094      O1095   1.258       .  A
C1094      C1205   1.500       .  S
O1095     Cr1102   1.981       .  S
O1096     Cr1102   2.005       .  S
O1096      C1097   1.269       .  A
C1097      O1098   1.264       .  A
C1097      C1237   1.498       .  S
O1098     Cr1103   1.987       .  S
O1099     Cr1103   1.991       .  S
O1099      C1100   1.259       .  A
C1100      C1125   1.479       .  S
Cr1101     O1104   1.767       .  S
Cr1102     O1104   1.766       .  S
Cr1103     O1104   1.770       .  S
C1105      C1106   1.404       .  A
C1105      C1110   1.400       .  A
C1105      H1112   1.085       .  S
C1106      C1107   1.409       .  A
C1107      C1108   1.402       .  A
C1107      C1114   1.504       .  S
C1108      C1109   1.405       .  A
C1108      H1113   1.084       .  S
C1109      C1110   1.412       .  A
C1110      C1111   1.508       .  S
C1111      H1115   1.111       .  S
C1111      H1116   1.110       .  S
C1111      H1117   1.110       .  S
C1114      H1118   1.104       .  S
C1114      H1119   1.110       .  S
C1114      H1120   1.111       .  S
C1121      C1122   1.400       .  A
C1121      C1126   1.408       .  A
C1121      H1128   1.084       .  S
C1122      C1123   1.418       .  A
C1123      C1124   1.399       .  A
C1123      C1130   1.508       .  S
C1124      C1125   1.398       .  A
C1124      H1129   1.085       .  S
C1125      C1126   1.421       .  A
C1126      C1127   1.508       .  S
C1127      H1131   1.111       .  S
C1127      H1132   1.111       .  S
C1127      H1133   1.109       .  S
C1130      H1134   1.108       .  S
C1130      H1135   1.110       .  S
C1130      H1136   1.111       .  S
C1137      C1138   1.402       .  A
C1137      C1142   1.410       .  A
C1137      H1144   1.084       .  S
C1138      C1139   1.409       .  A
C1139      C1140   1.407       .  A
C1139      C1146   1.508       .  S
C1140      C1141   1.413       .  A
C1140      H1145   1.083       .  S
C1141      C1142   1.424       .  A
C1142      C1143   1.508       .  S
C1143      H1147   1.111       .  S
C1143      H1148   1.111       .  S
C1143      H1149   1.110       .  S
C1146      H1150   1.110       .  S
C1146      H1151   1.110       .  S
C1146      H1152   1.111       .  S
C1153      C2834   1.405   1_655  A
C1153      C1158   1.410   1_655  A
C1153      H2840   1.084       .  S
C1154      C2833   1.404       .  A
C1154      C2835   1.420       .  A
C1155      C2834   1.423       .  A
C1155      C1156   1.402       .  A
C1155      C1162   1.512       .  S
C1156      C1157   1.404       .  A
C1156      H1161   1.084       .  S
C1157      C1158   1.423       .  A
C1158      C1159   1.509       .  S
C1159      H1163   1.111   1_455  S
C1159      H1164   1.109       .  S
C1159      H1165   1.110       .  S
H1160      C2833   1.084       .  S
C1162      H2846   1.110       .  S
C1162      H1167   1.111       .  S
C1162      H1168   1.111       .  S
H1166      C2842   1.110       .  S
C1169      C1170   1.406       .  A
C1169      C1174   1.403       .  A
C1169      H1176   1.084       .  S
C1170      C1171   1.420       .  A
C1171      C1172   1.405       .  A
C1171      C1178   1.509       .  S
C1172      C1173   1.406       .  A
C1172      H1177   1.083       .  S
C1173      C1174   1.421       .  A
C1174      C1175   1.510       .  S
C1175      H1179   1.111       .  S
C1175      H1181   1.110       .  S
C1178      H2862   1.110       .  S
C1178      H1183   1.111   1_455  S
C1178      H1184   1.111       .  S
H1182      C2858   1.111       .  S
C1185      C1186   1.404       .  A
C1185      C1190   1.404       .  A
C1185      H1192   1.084       .  S
C1186      C1187   1.431       .  A
C1187      C1188   1.401       .  A
C1187      C1194   1.511       .  S
C1188      C1189   1.394       .  A
C1188      H1193   1.085       .  S
C1189      C1190   1.414       .  A
C1190      C1191   1.508       .  S
C1191      H1195   1.111       .  S
C1191      H1196   1.111       .  S
C1191      H1197   1.109       .  S
C1194      H1198   1.110       .  S
C1194      H1199   1.107       .  S
C1194      H1200   1.111       .  S
C1201      C2882   1.402       .  A
C1201      C2886   1.399       .  A
C1201      H1208   1.085       .  S
C1202      C2705   1.480   1_455  S
C1202      C2881   1.402       .  A
C1202      C1203   1.408       .  A
C1203      C1204   1.410       .  A
C1203      C1210   1.506       .  S
C1204      C1205   1.414       .  A
C1204      H1209   1.083       .  S
C1205      C1206   1.422       .  A
C1206      C2881   1.404       .  A
C1206      C2887   1.510       .  S
C1207      C2886   1.509       .  S
C1207      H1211   1.111       .  S
C1207      H1212   1.110       .  S
C1207      H2893   1.110       .  S
C1210      H1214   1.111       .  S
C1210      H1215   1.110       .  S
C1210      H1216   1.111       .  S
H1213      C2887   1.110       .  S
C1217      C1218   1.409       .  A
C1217      C1222   1.403       .  A
C1217      H1224   1.084       .  S
C1218      C1219   1.417       .  A
C1219      C1220   1.403       .  A
C1219      C1226   1.508       .  S
C1220      C1221   1.406       .  A
C1220      H1225   1.084       .  S
C1221      C1222   1.410       .  A
C1222      C1223   1.502       .  S
C1223      H1227   1.111       .  S
C1223      H1228   1.109       .  S
C1223      H1229   1.110       .  S
C1226      H1230   1.110       .  S
C1226      H1231   1.110       .  S
C1226      H1232   1.111       .  S
C1233      C2914   1.401       .  A
C1233      C1238   1.407       .  A
C1233      H1240   1.084       .  S
C1234      C2913   1.403       .  A
C1234      C1235   1.409       .  A
C1235      C2916   1.406       .  A
C1235      C1242   1.506       .  S
C1236      C2915   1.403   1_455  A
C1236      C1237   1.413       .  A
C1236      H1241   1.083       .  S
C1237      C1238   1.423       .  A
C1238      C1239   1.509       .  S
C1239      H1243   1.111       .  S
C1239      H1244   1.110       .  S
C1239      H1245   1.110       .  S
C1242      H1246   1.110       .  S
C1242      H1247   1.111       .  S
C1242      H1248   1.111       .  S
C1249      C1250   1.400       .  A
C1249      C2934   1.404   1_455  A
C1249      H1256   1.084       .  S
C1250      C1251   1.419       .  A
C1251      C1252   1.406       .  A
C1251      C1258   1.508       .  S
C1252      C1253   1.399       .  A
C1252      H1257   1.084       .  S
C1253      C2683   1.476   1_455  S
C1253      C2934   1.416   1_455  A
C1254      C2929   1.406       .  A
C1254      C2933   1.415       .  A
C1254      C1255   1.507       .  S
C1255      H1259   1.111       .  S
C1255      H1260   1.111       .  S
C1255      H1261   1.109       .  S
C1258      H1262   1.111       .  S
C1258      H1263   1.109       .  S
C1258      H1264   1.111       .  S
C1265      C1266   1.406       .  A
C1265      C1270   1.404       .  A
C1265      H1272   1.085       .  S
C1266      C1267   1.409       .  A
C1267      C1268   1.409       .  A
C1268      C1269   1.410       .  A
C1268      H1273   1.084       .  S
C1269      C1270   1.412       .  A
C1270      C1271   1.507       .  S
C1271      H1275   1.111       .  S
C1271      H1276   1.110       .  S
C1271      H1277   1.109       .  S
C1274      H1278   1.110       .  S
C1274      H1279   1.110   1_545  S
C1274      H1280   1.111       .  S
C1281      C1282   1.407       .  A
C1281      C1286   1.414       .  A
C1281      H1288   1.085       .  S
C1282      C1283   1.418       .  A
C1283      C1290   1.509       .  S
C1284      C1285   1.397   1_565  A
C1284      H1289   1.084       .  S
C1286      C1287   1.505       .  S
C1287      H1291   1.110       .  S
C1287      H1292   1.111       .  S
C1287      H1293   1.100       .  S
C1290      H1294   1.111       .  S
C1290      H1295   1.109       .  S
C1297      C1298   1.404       .  A
C1297      C1302   1.402       .  A
C1297      H1304   1.085       .  S
C1298      C1299   1.412       .  A
C1299      C1300   1.405       .  A
C1299      C1306   1.508       .  S
C1300      C1301   1.408       .  A
C1300      H1305   1.084       .  S
C1301      C1302   1.414       .  A
C1302      C1303   1.507       .  S
C1303      H1307   1.111       .  S
C1303      H1308   1.110       .  S
C1303      H1309   1.110       .  S
C1306      H1310   1.109       .  S
C1306      H1311   1.111       .  S
C1306      H1312   1.111       .  S
C1313      C1314   1.398       .  A
C1313      C1318   1.403       .  A
C1313      H1320   1.084       .  S
C1314      C1315   1.417       .  A
C1315      C1316   1.399       .  A
C1315      C1322   1.510       .  S
C1316      C1317   1.400       .  A
C1316      H1321   1.085       .  S
C1317      C1318   1.420       .  A
C1318      C1319   1.509       .  S
C1319      H1323   1.111       .  S
C1319      H1324   1.111       .  S
C1319      H1325   1.109       .  S
C1322      H1326   1.108       .  S
C1322      H1327   1.111       .  S
C1322      H1328   1.111       .  S
C1329      C1330   1.401       .  A
C1329      C1334   1.404       .  A
C1329      H1336   1.084       .  S
C1330      C1331   1.419       .  A
C1331      C1332   1.402       .  A
C1331      C1338   1.509       .  S
C1332      C1333   1.397       .  A
C1332      H1337   1.084       .  S
C1333      C1334   1.418       .  A
C1334      C1335   1.509       .  S
C1335      H1339   1.111       .  S
C1335      H1340   1.110       .  S
C1335      H1341   1.109       .  S
C1338      H1342   1.110       .  S
C1338      H1343   1.110       .  S
C1338      H1344   1.111       .  S
C1345      C1346   1.398       .  A
C1345      C1350   1.398       .  A
C1345      H1352   1.085       .  S
C1346      C1347   1.416       .  A
C1347      C1348   1.403       .  A
C1347      C1354   1.505       .  S
C1348      C1349   1.398       .  A
C1348      H1353   1.084       .  S
C1349      C1350   1.416       .  A
C1350      C1351   1.510       .  S
C1351      H1355   1.111       .  S
C1351      H1356   1.108       .  S
C1351      H1357   1.111       .  S
C1354      H1358   1.109       .  S
C1354      H1359   1.109       .  S
C1354      H1360   1.111       .  S
C1361      C3042   1.403       .  A
C1361      C1366   1.410       .  A
C1361      H1368   1.085       .  S
C1362      C3041   1.405       .  A
C1362      C1363   1.410   1_655  A
C1363      C3044   1.406   1_455  A
C1363      C1370   1.508       .  S
C1364      C3043   1.404       .  A
C1364      C1365   1.412       .  A
C1364      H1369   1.083       .  S
C1365      C1366   1.423       .  A
C1366      C1367   1.507       .  S
C1367      H1371   1.108       .  S
C1367      H1372   1.110       .  S
C1367      H1373   1.111       .  S
C1370      H1374   1.111       .  S
C1370      H1375   1.109       .  S
C1370      H1376   1.111       .  S
C1377      C1378   1.404       .  A
C1377      C1382   1.404       .  A
C1377      H1384   1.084       .  S
C1378      C1379   1.428       .  A
C1379      C1380   1.408       .  A
C1379      C1386   1.509       .  S
C1380      C1381   1.399       .  A
C1380      H3065   1.084       .  S
C1381      C2595   1.485       .  S
C1381      C1382   1.419       .  A
C1382      C1383   1.510       .  S
C1383      H1387   1.111       .  S
C1383      H1388   1.110       .  S
C1383      H1389   1.109       .  S
H1385      C3060   1.085       .  S
C1386      H1390   1.110       .  S
C1386      H1391   1.110       .  S
C1386      H3072   1.111       .  S
H1392      C3066   1.111       .  S
C1393      C1394   1.414       .  A
C1393      C1398   1.414       .  A
C1393      H1400   1.083       .  S
C1394      C1395   1.419       .  A
C1395      C1396   1.399       .  A
C1395      C1402   1.512       .  S
C1396      C1397   1.407       .  A
C1397      C1398   1.411       .  A
C1398      C1399   1.505       .  S
C1399      H1403   1.111       .  S
C1399      H1404   1.110       .  S
C1399      H1405   1.110       .  S
C1402      H1406   1.111       .  S
C1402      H1407   1.110       .  S
C1402      H1408   1.111   1_565  S
C1409      C1410   1.409       .  A
C1409      C1414   1.403   1_565  A
C1409      H1416   1.083       .  S
C1410      C1411   1.423       .  A
C1411      C1412   1.409       .  A
C1411      C1418   1.508       .  S
C1412      H1417   1.084       .  S
C1415      H1420   1.111       .  S
C1415      H1421   1.110       .  S
C1418      H1422   1.111       .  S
C1418      H1423   1.109       .  S
C1418      H1424   1.111       .  S
C1425      C1426   1.404       .  A
C1425      C1430   1.410       .  A
C1425      H1432   1.084       .  S
C1426      C1427   1.418       .  A
C1427      C1428   1.401       .  A
C1427      C1434   1.507       .  S
C1428      C1429   1.402       .  A
C1428      H1433   1.084       .  S
C1429      C1430   1.420       .  A
C1430      C1431   1.508       .  S
C1431      H1435   1.111       .  S
C1431      H1436   1.109       .  S
C1431      H1437   1.111       .  S
C1434      H1438   1.109       .  S
C1434      H1439   1.109       .  S
C1434      H1440   1.111       .  S
C1441      C1442   1.404       .  A
C1441      C1446   1.409       .  A
C1441      H1448   1.084       .  S
C1442      C1443   1.419       .  A
C1443      C1444   1.400       .  A
C1443      C1450   1.511       .  S
C1444      H1449   1.085   1_565  S
C1447      H1451   1.111       .  S
C1447      H1452   1.108       .  S
C1447      H1453   1.110       .  S
C1450      H1454   1.111       .  S
C1450      H1455   1.109       .  S
C1450      H1456   1.111       .  S
C1457      C1458   1.404       .  A
C1457      C1462   1.404       .  A
C1457      H1464   1.084       .  S
C1458      C1459   1.430       .  A
C1459      C1460   1.404       .  A
C1459      C1466   1.510       .  S
C1460      C1461   1.394       .  A
C1460      H1465   1.085       .  S
C1461      C1462   1.416       .  A
C1462      C3143   1.508       .  S
C1463      C3142   1.507   1_455  S
C1463      H1467   1.111       .  S
C1463      H1468   1.110       .  S
C1463      H1469   1.110       .  S
C1466      H1470   1.110       .  S
C1466      H1471   1.111       .  S
C1466      H1472   1.111       .  S
C1473      C1474   1.408       .  A
C1473      C1478   1.405       .  A
C1473      H1480   1.082       .  S
C1474      C1475   1.407       .  A
C1475      C1476   1.402       .  A
C1475      C1482   1.508       .  S
C1476      C1477   1.415       .  A
C1476      H1481   1.083       .  S
C1477      C1478   1.414       .  A
C1478      C1479   1.507       .  S
C1479      H1483   1.111       .  S
C1479      H1484   1.111       .  S
C1479      H1485   1.110       .  S
C1482      H1486   1.106       .  S
C1482      H1487   1.110       .  S
C1482      H1488   1.110       .  S
C1489      C1490   1.410       .  A
C1489      C1494   1.412       .  A
C1489      H1496   1.084       .  S
C1490      C1491   1.415       .  A
C1491      C1492   1.405       .  A
C1491      C1498   1.509       .  S
C1492      C1493   1.410       .  A
C1492      H1497   1.084       .  S
C1493      C1494   1.416       .  A
C1494      C1495   1.507       .  S
C1495      H1499   1.111       .  S
C1495      H1500   1.110       .  S
C1495      H1501   1.110       .  S
C1498      H1502   1.111       .  S
C1498      H1503   1.110       .  S
C1498      H1504   1.111       .  S
C1505      C1506   1.406       .  A
C1505      H1512   1.084       .  S
C1506      C1507   1.428       .  A
C1507      C1508   1.410       .  A
C1507      C1514   1.509       .  S
C1508      C1509   1.398       .  A
C1508      H1513   1.085       .  S
C1510      C1511   1.509       .  S
C1511      H1515   1.111       .  S
C1511      H1516   1.110       .  S
C1511      H1517   1.109       .  S
C1514      H1518   1.110       .  S
C1514      H1519   1.109       .  S
C1514      H1520   1.111       .  S
C1521      C1522   1.410       .  A
C1521      C1526   1.409       .  A
C1521      H1528   1.083       .  S
C1522      C1523   1.424       .  A
C1523      C1530   1.511       .  S
C1524      C1525   1.405       .  A
C1524      H1529   1.084       .  S
C1526      C1527   1.507       .  S
C1527      H1531   1.111       .  S
C1527      H1532   1.109       .  S
C1527      H1533   1.111       .  S
C1530      H1534   1.110       .  S
C1530      H1535   1.110       .  S
C1537      C1538   1.412       .  A
C1537      C1542   1.412       .  A
C1537      H1544   1.083       .  S
C1538      C1539   1.418       .  A
C1540      H1545   1.083       .  S
C1541      C1542   1.413       .  A
C1542      C1543   1.506       .  S
C1543      H1547   1.111       .  S
C1543      H1548   1.111       .  S
C1543      H1549   1.109       .  S
C1546      H1550   1.109       .  S
C1546      H1551   1.107       .  S
C1546      H1552   1.111       .  S
C1553      C1554   1.411       .  A
C1553      C1558   1.408       .  A
C1553      H1560   1.084       .  S
C1554      C1555   1.418       .  A
C1555      C1556   1.405       .  A
C1555      C1562   1.509       .  S
C1556      C1557   1.407       .  A
C1556      H1561   1.085       .  S
C1557      C1558   1.414       .  A
C1558      C1559   1.507       .  S
C1559      H1563   1.111       .  S
C1559      H1564   1.111       .  S
C1559      H1565   1.110       .  S
C1562      H1566   1.111       .  S
C1562      H1567   1.111       .  S
C1562      H1568   1.110       .  S
C1569      C1570   1.403       .  A
C1569      C1574   1.404       .  A
C1569      H1576   1.084       .  S
C1570      C1571   1.413       .  A
C1571      C1572   1.407       .  A
C1571      C1578   1.507       .  S
C1572      C1573   1.406       .  A
C1572      H1577   1.084       .  S
C1573      C1574   1.415       .  A
C1574      C1575   1.508       .  S
C1575      H1579   1.111       .  S
C1575      H1580   1.111       .  S
C1575      H1581   1.109       .  S
C1578      H1582   1.110       .  S
C1578      H1583   1.110       .  S
C1578      H1584   1.110       .  S
C1585      C1586   1.406   1_455  A
C1585      C3270   1.412   1_455  A
C1585      H1592   1.083       .  S
C1586      C3267   1.424       .  A
C1587      C3266   1.422       .  A
C1587      C1588   1.401       .  A
C1587      C1594   1.513       .  S
C1588      C1589   1.405       .  A
C1588      H1593   1.084       .  S
C1589      C1590   1.423       .  A
C1590      C3265   1.412       .  A
C1590      C1591   1.508       .  S
C1591      H3275   1.111       .  S
C1591      H1596   1.110       .  S
C1591      H1597   1.111       .  S
C1594      H1598   1.109   1_554  S
C1594      H1599   1.111   1_554  S
C1594      H1600   1.111       .  S
H1595      C3271   1.111   1_455  S
C1601      C1602   1.406       .  A
C1601      C1606   1.409       .  A
C1601      H1608   1.084       .  S
C1602      C1603   1.416       .  A
C1603      C1604   1.409       .  A
C1603      C1610   1.508       .  S
C1604      C1605   1.409       .  A
C1604      H1609   1.084       .  S
C1605      C1606   1.418       .  A
C1606      C1607   1.508       .  S
C1607      H1611   1.111       .  S
C1607      H1612   1.110       .  S
C1607      H1613   1.111       .  S
C1610      H1614   1.109       .  S
C1610      H1615   1.111       .  S
C1610      H1616   1.111       .  S
C1617      C1618   1.404       .  A
C1617      C1622   1.403       .  A
C1617      H1624   1.084       .  S
C1618      C1619   1.422       .  A
C1619      C1620   1.401       .  A
C1619      C1626   1.509       .  S
C1620      C1621   1.399       .  A
C1620      H1625   1.085       .  S
C1621      C1622   1.416       .  A
C1623      H1628   1.110       .  S
C1623      H1629   1.111   1_545  S
C1626      H3310   1.110       .  S
C1626      H1631   1.108       .  S
C1626      H1632   1.111       .  S
H1630      C3306   1.110       .  S
C1633      C1634   1.412       .  A
C1633      C1638   1.398       .  A
C1633      H1640   1.084       .  S
C1634      C1635   1.413       .  A
C1635      C1636   1.403       .  A
C1635      C1642   1.506       .  S
C1636      C1637   1.409       .  A
C1636      H1641   1.085       .  S
C1637      C1638   1.408       .  A
C1638      C1639   1.508       .  S
C1639      H1643   1.110       .  S
C1639      H1644   1.111       .  S
C1639      H1645   1.110       .  S
C1642      H1646   1.106       .  S
C1642      H1647   1.110       .  S
C1642      H1648   1.111       .  S
C1649      C1650   1.404       .  A
C1649      C1654   1.399   1_556  A
C1649      H3336   1.084   1_556  S
C1650      C2529   1.484       .  S
C1650      C1651   1.410       .  A
C1651      C1652   1.411       .  A
C1651      C1658   1.504       .  S
C1652      C1653   1.414       .  A
C1652      H1657   1.083       .  S
C1653      C1654   1.420   1_556  A
C1654      C1655   1.511       .  S
C1655      H3339   1.111       .  S
C1655      H3340   1.111       .  S
C1655      H1661   1.110       .  S
H1656      C3329   1.084   1_455  S
C1658      H1662   1.110       .  S
C1658      H1663   1.110       .  S
C1658      H1664   1.111       .  S
H1659      C3335   1.111       .  S
H1660      C3335   1.111       .  S
C1665      C1666   1.406       .  A
C1665      C1670   1.403       .  A
C1665      H1672   1.083       .  S
C1666      C1667   1.428       .  A
C1667      C1668   1.409       .  A
C1667      C1674   1.506       .  S
C1668      C1669   1.399       .  A
C1668      H1673   1.085       .  S
C1669      C1670   1.415       .  A
C1670      C1671   1.506       .  S
C1671      H1675   1.111       .  S
C1671      H1676   1.109       .  S
C1671      H1677   1.108       .  S
C1674      H1678   1.110       .  S
C1674      H1679   1.110   1_554  S
C1674      H1680   1.111       .  S
O1681     Cr1699   1.942       .  S
O1681      C1689   1.250       .  A
O1682     Cr1699   2.041   1_554  S
O1682      C1683   1.277       .  A
C1683      O1684   1.256   1_554  A
C1683      C2426   1.495       .  S
O1684     Cr1700   1.946       .  S
O1685     Cr1700   2.021       .  S
C1686      O1687   1.254       .  A
C1686      C2458   1.488       .  S
O1688     Cr1701   2.041       .  S
O1688      C1689   1.270       .  A
O1690     Cr1699   2.043       .  S
O1690      C1698   1.275       .  A
O1691     Cr1699   1.965       .  S
O1691      C1692   1.252   1_556  A
C1692      O1693   1.268   1_554  A
C1692      C2506   1.496       .  S
O1693     Cr1700   2.019       .  S
O1694     Cr1700   1.963       .  S
O1694      C1695   1.261       .  A
C1695      O1696   1.275       .  A
C1695      C2442   1.492       .  S
O1696     Cr1701   2.037       .  S
O1697     Cr1701   1.930       .  S
O1697      C1698   1.253       .  A
C1698      C2474   1.491       .  S
Cr1699     O1702   1.760       .  S
Cr1700     O1702   1.763       .  S
Cr1701     O1702   1.763       .  S
O1703     Cr1721   1.954       .  S
O1703      C1711   1.254       .  A
O1704     Cr1721   2.029       .  S
O1704      C1705   1.271       .  A
C1705      O1706   1.261       .  A
C1705      C2365   1.493       .  S
O1706     Cr1722   1.965       .  S
O1707     Cr1722   2.017       .  S
O1707      C2548   1.265       .  A
C1708      O2547   1.263   1_545  A
C1708      O2549   1.257       .  A
C1708      C2461   1.489       .  S
O1709     Cr1723   1.969       .  S
O1709      C2548   1.258       .  A
O1710     Cr1723   2.040       .  S
O1710      C1711   1.271       .  A
C1711      C3221   1.496       .  S
O1712     Cr1721   2.029       .  S
O1712      C1720   1.271       .  A
O1713     Cr1721   1.973       .  S
O1713      C1714   1.258       .  A
C1714      O1715   1.267       .  A
C1714      C2394   1.502       .  S
O1715     Cr1722   2.024       .  S
O1716     Cr1722   1.970       .  S
O1716      C1717   1.263       .  A
C1717      O1718   1.274       .  A
C1717      C2410   1.480       .  S
O1718     Cr1723   2.033       .  S
O1719     Cr1723   1.941       .  S
O1719      C1720   1.253       .  A
C1720      C2477   1.480       .  S
Cr1721     O1724   1.768       .  S
Cr1722     O1724   1.768       .  S
Cr1723     O1724   1.770       .  S
O1725     Cr1743   1.999       .  S
O1725      C1733   1.263       .  A
O1726     Cr1743   1.985       .  S
O1726      C1727   1.265       .  A
C1727      O1728   1.270       .  A
C1727      C2266   1.487       .  S
O1728     Cr1744   2.010       .  S
O1729     Cr1744   1.993       .  S
O1729      C1730   1.264       .  A
C1730      O1731   1.252       .  A
C1730      C2298   1.491       .  S
O1731     Cr1745   1.969       .  S
O1732     Cr1745   2.010       .  S
O1732      C1733   1.268       .  A
C1733      C2333   1.488       .  S
O1734     Cr1743   1.994       .  S
O1734      C1742   1.264       .  A
O1735     Cr1743   1.995       .  S
O1735      C1736   1.257       .  A
C1736      O1737   1.261       .  A
C1736      C2346   1.499       .  S
O1737     Cr1744   1.994       .  S
O1738     Cr1744   1.995       .  S
O1738      C1739   1.265       .  A
C1739      O1740   1.269       .  A
C1739      C2282   1.489       .  S
O1740     Cr1745   2.006       .  S
O1741     Cr1745   1.977       .  S
O1741      C1742   1.257       .  A
C1742      C2314   1.470       .  S
Cr1743     O1746   1.775       .  S
Cr1744     O1746   1.766       .  S
Cr1745     O1746   1.770       .  S
O1747     Cr1765   1.995       .  S
O1747      C1755   1.263       .  A
O1748     Cr1765   1.988       .  S
O1748      C1749   1.265       .  A
C1749      O1750   1.268       .  A
C1749      C2202   1.486       .  S
O1750     Cr1766   2.005       .  S
O1751     Cr1766   1.986       .  S
C1752      C2301   1.473       .  S
O1753     Cr1767   1.982       .  S
O1754     Cr1767   2.002       .  S
O1754      C1755   1.269       .  A
O1756     Cr1765   2.000       .  S
O1756      C1764   1.265       .  A
O1757     Cr1765   2.005       .  S
O1757      C1758   1.262       .  A
C1758      O1759   1.257       .  A
C1758      C2234   1.496       .  S
O1759     Cr1766   1.977       .  S
O1760     Cr1766   2.003       .  S
O1760      C1761   1.268       .  A
C1761      O1762   1.265       .  A
C1761      C2250   1.491       .  S
O1762     Cr1767   1.989       .  S
O1763     Cr1767   1.974       .  S
O1763      C1764   1.257       .  A
C1764      C2317   1.482       .  S
Cr1765     O1768   1.770       .  S
Cr1766     O1768   1.764       .  S
Cr1767     O1768   1.768       .  S
O1769     Cr1787   1.951       .  S
O1769      C1777   1.249       .  A
O1770     Cr1787   2.032       .  S
O1770      C1771   1.273       .  A
C1771      O1772   1.259       .  A
C1771      C2285   1.490   1_545  S
O1772     Cr1788   1.957       .  S
O1773     Cr1788   2.032       .  S
O1773      C2614   1.272   1_545  A
C1774      O2613   1.270       .  A
C1774      O1775   1.254       .  A
C1774      C2170   1.473       .  S
O1775     Cr2629   1.953       .  S
O1776     Cr1789   2.027       .  S
O1776      C1777   1.265       .  A
C1777      C3077   1.470   1_545  S
O1778     Cr1787   2.034       .  S
O1778      C1786   1.273       .  A
O1779     Cr1787   1.955       .  S
O1779      C1780   1.250       .  A
C1780      O1781   1.270       .  A
C1780      C2218   1.501       .  S
O1781     Cr1788   2.033       .  S
O1782     Cr1788   1.981       .  S
O1782      C1783   1.260       .  A
C1783      O1784   1.270       .  A
C1783      C2429   1.497       .  S
O1784     Cr1789   2.014       .  S
O1785     Cr1789   1.932       .  S
O1785      C1786   1.250       .  A
C1786      C2189   1.468       .  S
Cr1787     O1790   1.766       .  S
Cr1788     O1790   1.768       .  S
Cr1789     O2615   1.954   1_545  S
Cr1789     O1790   1.766       .  S
O1791     Cr1809   1.991       .  S
O1791      C1799   1.261       .  A
O1792     Cr1809   1.986   1_556  S
O1792      C1793   1.264       .  A
C1793      O1794   1.270   1_556  A
C1793      C2413   1.489       .  S
O1794     Cr1810   2.014       .  S
O1795     Cr1810   1.977       .  S
O1795      C1796   1.258       .  A
C1796      O1797   1.259       .  A
C1796      C2173   1.467       .  S
O1797     Cr1811   1.991       .  S
O1798     Cr1811   2.002       .  S
O1798      C1799   1.267       .  A
C1799      C2509   1.478       .  S
O1800     Cr1809   1.991       .  S
O1800      C1808   1.265       .  A
O1801     Cr1809   2.002   1_556  S
O1801      C1802   1.260   1_556  A
C1802      O1803   1.256       .  A
C1802      C2493   1.485   1_554  S
O1803     Cr1810   1.969       .  S
O1804     Cr1810   2.010       .  S
O1804      C1805   1.271       .  A
C1805      O1806   1.265       .  A
C1805      C2205   1.503       .  S
O1806     Cr1811   1.991       .  S
O1807     Cr1811   1.993       .  S
O1807      C1808   1.260       .  A
C1808      C2186   1.472       .  S
Cr1809     O1812   1.770       .  S
Cr1810     O1812   1.763       .  S
Cr1811     O1812   1.770       .  S
O1813     Cr1831   1.996       .  S
O1813      C1821   1.262       .  A
O1814     Cr1831   1.979       .  S
O1814      C1815   1.262       .  A
C1815      O1816   1.267       .  A
C1815      C2445   1.478       .  S
O1816     Cr1832   2.005       .  S
O1817     Cr1832   1.989       .  S
O1817      C1818   1.261       .  A
C1818      O1819   1.259       .  A
C1818      C2141   1.477       .  S
O1819     Cr1833   1.974       .  S
O1820     Cr1833   2.007       .  S
O1820      C1821   1.266       .  A
C1821      C2397   1.487       .  S
O1822     Cr1831   1.986       .  S
O1822      C1830   1.265       .  A
O1823     Cr1831   2.001       .  S
O1823      C1824   1.260       .  A
C1824      O1825   1.260       .  A
C1824      C2378   1.485       .  S
O1825     Cr1832   1.984       .  S
O1826     Cr1832   2.008       .  S
O1826      C1827   1.266       .  A
C1827      O1828   1.270       .  A
C1827      C2122   1.507       .  S
O1828     Cr1833   2.005       .  S
O1829     Cr1833   1.987       .  S
O1829      C1830   1.259       .  A
C1830      C2157   1.478       .  S
Cr1831     O1834   1.774       .  S
Cr1832     O1834   1.769       .  S
Cr1833     O1834   1.765       .  S
O1835     Cr1853   1.957       .  S
O1835      C1843   1.252       .  A
O1836     Cr1853   2.034       .  S
O1836      C1837   1.275       .  A
C1837      O1838   1.261       .  A
C1837      C2074   1.481       .  S
O1838     Cr1854   1.962       .  S
O1839     Cr1854   2.020       .  S
C1840      O1841   1.253       .  A
C1840      C2138   1.469       .  S
O1842     Cr1855   2.020       .  S
O1842      C1843   1.265       .  A
O1844     Cr1853   2.030       .  S
O1844      C1852   1.273       .  A
O1845     Cr1853   1.962       .  S
O1845      C1846   1.252       .  A
C1846      O1847   1.264       .  A
C1846      C2109   1.481       .  S
O1847     Cr1854   2.027       .  S
O1848     Cr1854   1.983       .  S
O1848      C1849   1.265       .  A
C1849      O1850   1.269       .  A
C1849      C2362   1.499       .  S
O1850     Cr1855   2.019       .  S
O1851     Cr1855   1.932       .  S
O1851      C1852   1.250       .  A
C1852      C2154   1.478       .  S
Cr1853     O1856   1.770       .  S
Cr1854     O1856   1.776       .  S
Cr1855     O1856   1.770       .  S
O1857     Cr1875   1.951       .  S
O1857      C1865   1.254       .  A
O1858     Cr1875   2.027       .  S
O1858      C1859   1.273       .  A
C1859      O1860   1.259       .  A
C1859      C1994   1.492   1_655  S
O1860     Cr1876   1.959       .  S
O1861     Cr1876   2.013       .  S
C1862      O1863   1.259       .  A
C1862      C2010   1.491       .  S
O1864     Cr1877   2.028       .  S
O1864      C1865   1.268       .  A
O1866     Cr1875   2.020       .  S
O1866      C1874   1.269       .  A
O1867     Cr1875   1.968       .  S
O1867      C1868   1.255       .  A
C1868      O1869   1.264       .  A
C1868      C2058   1.491       .  S
O1869     Cr1876   2.012       .  S
O1870     Cr1876   1.974       .  S
O1870      C1871   1.261       .  A
C1871      O1872   1.274       .  A
C1871      C2269   1.485       .  S
O1872     Cr1877   2.027       .  S
O1873     Cr1877   1.938       .  S
O1873      C1874   1.252       .  A
C1874      C2029   1.457       .  S
Cr1875     O1878   1.765       .  S
Cr1876     O1878   1.765       .  S
Cr1877     O1878   1.769       .  S
O1879     Cr1897   1.954       .  S
O1879      C1887   1.251       .  A
O1880     Cr1897   2.035       .  S
O1880      C1881   1.276       .  A
C1881      O1882   1.261       .  A
C1881      C2253   1.479   1_545  S
O1882     Cr1898   1.960       .  S
O1883     Cr1898   2.016       .  S
O1883      C2724   1.266   1_545  A
C1884      O2723   1.266       .  A
C1884      O1885   1.252       .  A
C1884      C2013   1.483       .  S
O1885     Cr2739   1.963       .  S
O1886     Cr1899   2.020       .  S
O1886      C1887   1.265       .  A
C1887      C3189   1.477   1_545  S
O1888     Cr1897   2.027       .  S
O1888      C1896   1.272       .  A
O1889     Cr1897   1.977       .  S
O1889      C1890   1.255       .  A
C1890      O1891   1.263       .  A
C1890      C2330   1.504       .  S
O1891     Cr1898   2.019       .  S
O1892     Cr1898   1.984       .  S
O1892      C1893   1.266       .  A
C1893      O1894   1.274       .  A
C1893      C1978   1.497       .  S
O1894     Cr1899   2.033       .  S
O1895     Cr1899   1.931       .  S
O1895      C1896   1.251       .  A
C1896      C2026   1.472       .  S
Cr1897     O1900   1.773       .  S
Cr1898     O1900   1.772       .  S
Cr1899     O2725   1.965   1_545  S
Cr1899     O1900   1.771       .  S
O1901     Cr1919   1.946       .  S
O1901      C1909   1.249       .  A
O1902     Cr1919   2.046       .  S
O1902      C1903   1.278       .  A
C1903      O1904   1.261       .  A
C1903      C2125   1.491       .  S
O1904     Cr1920   1.962       .  S
O1905     Cr1920   2.016       .  S
O1905      C2746   1.267       .  A
C1906      O2745   1.266   1_545  A
C1906      O2747   1.255       .  A
C1906      C1949   1.490       .  S
O1907     Cr1921   1.961       .  S
O1907      C2746   1.257       .  A
O1908     Cr1921   2.033       .  S
O1908      C1909   1.268       .  A
C1909      C2946   1.477       .  S
O1910     Cr1919   2.038       .  S
O1910      C1918   1.274       .  A
O1911     Cr1919   1.951       .  S
O1911      C1912   1.247       .  A
C1912      O1913   1.265       .  A
C1912      C2090   1.491       .  S
O1913     Cr1920   2.025       .  S
O1914     Cr1920   1.983       .  S
O1914      C1915   1.262       .  A
C1915      O1916   1.273       .  A
C1915      C1997   1.501       .  S
O1916     Cr1921   2.022       .  S
O1917     Cr1921   1.941       .  S
O1917      C1918   1.251       .  A
C1918      C1962   1.487       .  S
Cr1919     O1922   1.769       .  S
Cr1920     O1922   1.777       .  S
Cr1921     O1922   1.771       .  S
O1923     Cr1941   1.993       .  S
O1923      C1931   1.264       .  A
O1924     Cr1941   1.994       .  S
O1924      C1925   1.266       .  A
C1925      O1926   1.270       .  A
C1925      C1981   1.494       .  S
O1926     Cr1942   2.009       .  S
O1927     Cr1942   1.987       .  S
O1927      C1928   1.260       .  A
C1928      O1929   1.257       .  A
C1928      C1946   1.472       .  S
O1929     Cr1943   1.983       .  S
O1930     Cr1943   1.993       .  S
O1930      C1931   1.265       .  A
C1931      C2061   1.482       .  S
O1932     Cr1941   2.010       .  S
O1932      C1940   1.268       .  A
O1933     Cr1941   1.995       .  S
O1933      C1934   1.258       .  A
C1934      O1935   1.258       .  A
C1934      C2045   1.487       .  S
O1935     Cr1942   1.979       .  S
O1936     Cr1942   2.006       .  S
O1936      C1937   1.269       .  A
C1937      O1938   1.265       .  A
C1937      C2077   1.494       .  S
O1938     Cr1943   1.990       .  S
O1939     Cr1943   1.986       .  S
O1939      C1940   1.256       .  A
C1940      C1965   1.490       .  S
Cr1941     O1944   1.775       .  S
Cr1942     O1944   1.771       .  S
Cr1943     O1944   1.773       .  S
C1945      C1946   1.401       .  A
C1945      C1950   1.405       .  A
C1945      H1952   1.084       .  S
C1946      C1947   1.408       .  A
C1947      C1948   1.402       .  A
C1947      C1954   1.507       .  S
C1948      C1949   1.409       .  A
C1948      H1953   1.083       .  S
C1949      C1950   1.420       .  A
C1950      C1951   1.508       .  S
C1951      H1955   1.111       .  S
C1951      H1956   1.110       .  S
C1951      H1957   1.110       .  S
C1954      H1958   1.110       .  S
C1954      H1959   1.110       .  S
C1954      H1960   1.111       .  S
C1961      C1962   1.398       .  A
C1961      C1966   1.407       .  A
C1961      H1968   1.084       .  S
C1962      C1963   1.424       .  A
C1963      C1964   1.404       .  A
C1963      C1970   1.510       .  S
C1964      C1965   1.400       .  A
C1964      H1969   1.085       .  S
C1965      C1966   1.426       .  A
C1966      C1967   1.509       .  S
C1967      H1971   1.111       .  S
C1967      H1972   1.110       .  S
C1967      H1973   1.110       .  S
C1970      H1974   1.109       .  S
C1970      H1975   1.111       .  S
C1970      H1976   1.111       .  S
C1977      C1978   1.408       .  A
C1977      C1982   1.411       .  A
C1977      H1984   1.084       .  S
C1978      C1979   1.419       .  A
C1979      C1980   1.407       .  A
C1979      C1986   1.508       .  S
C1980      C1981   1.406       .  A
C1980      H1985   1.084       .  S
C1981      C1982   1.416       .  A
C1982      C1983   1.506       .  S
C1983      H1987   1.111       .  S
C1983      H1988   1.110       .  S
C1983      H1989   1.110       .  S
C1986      H1990   1.109       .  S
C1986      H1991   1.108       .  S
C1986      H1992   1.111       .  S
C1993      C1998   1.413       .  A
C1995      C1996   1.402       .  A
C1995      C2002   1.512       .  S
C1996      C1997   1.406       .  A
C1996      H2001   1.083       .  S
C1997      C1998   1.423       .  A
C1998      C1999   1.508       .  S
C1999      H2003   1.111       .  S
C1999      H2004   1.110       .  S
C1999      H2005   1.111       .  S
C2002      H2007   1.111       .  S
C2002      H2008   1.111       .  S
C2009      C2010   1.409       .  A
C2009      C2014   1.403       .  A
C2009      H2016   1.083       .  S
C2010      C2011   1.420       .  A
C2011      C2012   1.402       .  A
C2011      C2018   1.509       .  S
C2012      C2013   1.403       .  A
C2012      H2017   1.083       .  S
C2013      C2014   1.416       .  A
C2014      C2015   1.510       .  S
C2015      H2019   1.111       .  S
C2015      H2860   1.109       .  S
C2015      H2021   1.111       .  S
C2018      H2023   1.110       .  S
C2018      H2024   1.111       .  S
H2020      C2855   1.109       .  S
C2025      C2026   1.403       .  A
C2025      C2030   1.405       .  A
C2025      H2032   1.084       .  S
C2026      C2027   1.421       .  A
C2027      C2028   1.395       .  A
C2027      C2034   1.511       .  S
C2028      C2029   1.394       .  A
C2028      H2033   1.085       .  S
C2029      C2030   1.410       .  A
C2030      C2031   1.506       .  S
C2031      H2035   1.111       .  S
C2031      H2036   1.111       .  S
C2031      H2037   1.110       .  S
C2034      H2038   1.109       .  S
C2034      H2039   1.110       .  S
C2034      H2040   1.111       .  S
C2041      H2048   1.084   1_455  S
C2042      C2043   1.415       .  A
C2043      C2044   1.411       .  A
C2043      C2050   1.506       .  S
C2044      C2045   1.411       .  A
C2044      H2049   1.084       .  S
C2045      C2046   1.414       .  A
C2047      H2051   1.111   1_455  S
C2047      H2052   1.110       .  S
C2050      H2054   1.110       .  S
C2050      H2055   1.110       .  S
C2050      H2056   1.111       .  S
C2057      C2058   1.411       .  A
C2057      C2062   1.405       .  A
C2057      H2064   1.084       .  S
C2058      C2059   1.418       .  A
C2059      C2060   1.402       .  A
C2059      C2066   1.509       .  S
C2060      C2061   1.405       .  A
C2060      H2065   1.084       .  S
C2061      C2062   1.412       .  A
C2062      C2063   1.507       .  S
C2063      H2067   1.111       .  S
C2063      H2068   1.111       .  S
C2063      H2069   1.109       .  S
C2066      H2070   1.110       .  S
C2066      H2071   1.110       .  S
C2066      H2072   1.111       .  S
C2073      C2078   1.410       .  A
C2073      H2080   1.085       .  S
C2074      C2075   1.410   1_655  A
C2075      C2082   1.508   1_455  S
C2076      C2077   1.408       .  A
C2076      H2081   1.084       .  S
C2077      C2078   1.422       .  A
C2078      C2079   1.508       .  S
C2079      H2083   1.111       .  S
C2079      H2084   1.109       .  S
C2079      H2085   1.109       .  S
C2082      H2086   1.111       .  S
C2082      H2087   1.109       .  S
C2082      H2088   1.111       .  S
C2089      C2090   1.407       .  A
C2089      H2096   1.083       .  S
C2090      C2091   1.427       .  A
C2091      C2092   1.402       .  A
C2091      C2098   1.511       .  S
C2092      C2093   1.394       .  A
C2092      H2097   1.084       .  S
C2094      C2095   1.507   1_455  S
C2095      H2099   1.111       .  S
C2095      H2100   1.111       .  S
C2095      H2101   1.109       .  S
C2098      H2102   1.110       .  S
C2098      H2103   1.110       .  S
C2098      H2104   1.111       .  S
C2105      C2106   1.410       .  A
C2105      C2110   1.397       .  A
C2105      H2112   1.084       .  S
C2106      C2749   1.496   1_545  S
C2106      C2107   1.418       .  A
C2107      C2108   1.416       .  A
C2107      C2954   1.505       .  S
C2108      C2109   1.407       .  A
C2108      H2113   1.084       .  S
C2109      C2110   1.410       .  A
C2110      C2111   1.510       .  S
C2111      H2115   1.111       .  S
C2111      H2116   1.109       .  S
C2111      H2117   1.110       .  S
C2114      C2947   1.507       .  S
C2114      H2118   1.111       .  S
C2114      H2119   1.110       .  S
C2114      H2120   1.111       .  S
C2121      C2122   1.407       .  A
C2121      C2126   1.407       .  A
C2121      H2128   1.084       .  S
C2122      C2123   1.429       .  A
C2123      C2964   1.413   1_545  A
C2123      C2130   1.509       .  S
C2124      C2963   1.405       .  A
C2124      C2125   1.403       .  A
C2124      H2129   1.084       .  S
C2125      C2966   1.416       .  A
C2126      C2965   1.417       .  A
C2126      C2127   1.508       .  S
C2127      H2131   1.110       .  S
C2127      H2132   1.110       .  S
C2127      H2133   1.107       .  S
C2130      H2134   1.110       .  S
C2130      H2135   1.107       .  S
C2130      H2976   1.111   1_545  S
H2136      C2970   1.111       .  S
C2137      C2138   1.405       .  A
C2137      C2142   1.403       .  A
C2137      H2144   1.084       .  S
C2138      C2139   1.408       .  A
C2139      C2140   1.399       .  A
C2139      C2146   1.508       .  S
C2140      C2141   1.408       .  A
C2140      H2145   1.084       .  S
C2141      C2142   1.413       .  A
C2142      C2143   1.507       .  S
C2143      H2147   1.111       .  S
C2143      H2148   1.110       .  S
C2143      H2149   1.110       .  S
C2146      H2150   1.109       .  S
C2146      H2151   1.110       .  S
C2146      H2152   1.111       .  S
C2153      C2154   1.399       .  A
C2153      C2158   1.404       .  A
C2153      H2160   1.085       .  S
C2154      C2155   1.423       .  A
C2155      C2156   1.397       .  A
C2155      C2162   1.512       .  S
C2156      C2157   1.398       .  A
C2156      H2161   1.084       .  S
C2157      C2158   1.421       .  A
C2158      C2159   1.509       .  S
C2159      H2163   1.111       .  S
C2159      H2164   1.111       .  S
C2159      H2165   1.109       .  S
C2162      H2166   1.109       .  S
C2162      H2167   1.108       .  S
C2162      H2168   1.111       .  S
C2169      C2170   1.401       .  A
C2169      C2174   1.402       .  A
C2169      H2176   1.084       .  S
C2170      C2171   1.419       .  A
C2171      C2172   1.400       .  A
C2171      C2178   1.509       .  S
C2172      C2173   1.396       .  A
C2172      H2177   1.085       .  S
C2173      C2174   1.415       .  A
C2174      C2175   1.509       .  S
C2175      H2179   1.111       .  S
C2175      H2180   1.110       .  S
C2175      H2181   1.109       .  S
C2178      H2182   1.111       .  S
C2178      H2183   1.109       .  S
C2178      H2184   1.111       .  S
C2185      C2186   1.398       .  A
C2185      C2190   1.399       .  A
C2185      H2192   1.084       .  S
C2186      C2187   1.417       .  A
C2187      C2188   1.403       .  A
C2187      C2194   1.505       .  S
C2188      C2189   1.398       .  A
C2188      H2193   1.084       .  S
C2189      C2190   1.418       .  A
C2190      C2191   1.510       .  S
C2191      H2195   1.111       .  S
C2191      H2196   1.107       .  S
C2191      H2197   1.111       .  S
C2194      H2198   1.109       .  S
C2194      H2199   1.109       .  S
C2194      H2200   1.111       .  S
C2201      C2206   1.410       .  A
C2201      H2208   1.085       .  S
C2202      C2203   1.413       .  A
C2203      C2210   1.509       .  S
C2204      C2205   1.410       .  A
C2204      H2209   1.083       .  S
C2205      C2206   1.423       .  A
C2206      C2207   1.507       .  S
C2207      H2211   1.107       .  S
C2207      H2212   1.110       .  S
C2207      H2213   1.111       .  S
C2210      H2214   1.110       .  S
C2210      H2215   1.109       .  S
C2210      H2216   1.111       .  S
C2217      C2218   1.406       .  A
C2217      C2222   1.406       .  A
C2217      H2224   1.083       .  S
C2218      C2219   1.430       .  A
C2219      C2220   1.407       .  A
C2219      C2226   1.510       .  S
C2220      C2221   1.397       .  A
C2221      C2222   1.416       .  A
C2222      C2223   1.509   1_655  S
C2223      H2227   1.111       .  S
C2223      H2228   1.110       .  S
C2223      H2229   1.109       .  S
C2226      H2230   1.110       .  S
C2226      H2231   1.110       .  S
C2233      C2234   1.414       .  A
C2233      C2238   1.409       .  A
C2233      H2240   1.083       .  S
C2234      C2235   1.421       .  A
C2235      C2236   1.401       .  A
C2235      C2242   1.509       .  S
C2236      C2237   1.400       .  A
C2236      H3081   1.085       .  S
C2237      C2617   1.473       .  S
C2237      C2238   1.407       .  A
C2238      C2239   1.506       .  S
C2239      H2243   1.111       .  S
C2239      H2244   1.111       .  S
C2239      H2245   1.110       .  S
H2241      C3076   1.084   1_545  S
C2242      H2246   1.110       .  S
C2242      H2247   1.110       .  S
C2242      H2248   1.111       .  S
C2249      C2250   1.407       .  A
C2249      C2254   1.400       .  A
C2249      H2256   1.082       .  S
C2250      C2251   1.420       .  A
C2251      C2252   1.409       .  A
C2251      C2258   1.507       .  S
C2252      C3093   1.402       .  A
C2252      H2257   1.084       .  S
C2253      C3092   1.405       .  A
C2253      C3094   1.410       .  A
C2254      C3093   1.409       .  A
C2254      C3095   1.507       .  S
C2255      C3094   1.508   1_545  S
C2255      H3099   1.111       .  S
C2255      H2260   1.110       .  S
C2255      H2261   1.109       .  S
C2258      H2262   1.111       .  S
C2258      H2263   1.109       .  S
C2258      H2264   1.111       .  S
H2259      C3095   1.111       .  S
C2265      C2266   1.405       .  A
C2265      C2270   1.409       .  A
C2265      H2272   1.084       .  S
C2266      C2267   1.418       .  A
C2267      C2268   1.402       .  A
C2267      C2274   1.506       .  S
C2268      C2269   1.401       .  A
C2268      H2273   1.084       .  S
C2269      C2270   1.418       .  A
C2270      C2271   1.508       .  S
C2271      H2275   1.111       .  S
C2271      H2276   1.109       .  S
C2271      H2277   1.111       .  S
C2274      H2278   1.109       .  S
C2274      H2279   1.109       .  S
C2274      H2280   1.111       .  S
C2281      C2282   1.405       .  A
C2281      C2286   1.413       .  A
C2281      H2288   1.084       .  S
C2282      C2283   1.419       .  A
C2283      C2284   1.403       .  A
C2283      C2290   1.510       .  S
C2284      C3125   1.403       .  A
C2284      H2289   1.084       .  S
C2285      C3124   1.407       .  A
C2285      C3126   1.419       .  A
C2286      C3125   1.418       .  A
C2286      C3127   1.505       .  S
C2287      C3126   1.506       .  S
C2287      H2291   1.111       .  S
C2287      H2292   1.108       .  S
C2287      H2293   1.110   1_565  S
C2290      H2294   1.110       .  S
C2290      H2295   1.109       .  S
C2290      H2296   1.111       .  S
C2297      C2298   1.403       .  A
C2297      C2302   1.401       .  A
C2297      H2304   1.082       .  S
C2298      C2299   1.429       .  A
C2299      C2300   1.401       .  A
C2299      C2306   1.511       .  S
C2300      C2301   1.395       .  A
C2300      H2305   1.085       .  S
C2301      C2302   1.417       .  A
C2303      H2307   1.111       .  S
C2303      H2308   1.109       .  S
C2303      H2309   1.109       .  S
C2306      H2310   1.110       .  S
C2306      H2311   1.110       .  S
C2306      H2312   1.111       .  S
C2313      C2314   1.409       .  A
C2313      C2318   1.400       .  A
C2313      H2320   1.084       .  S
C2314      C2315   1.408       .  A
C2315      C2316   1.397       .  A
C2315      C2322   1.509       .  S
C2316      C2317   1.413       .  A
C2316      H2321   1.084       .  S
C2317      C2318   1.411       .  A
C2318      C2319   1.508       .  S
C2319      H2323   1.111       .  S
C2319      H2324   1.110       .  S
C2319      H2325   1.110       .  S
C2322      H2326   1.105       .  S
C2322      H2327   1.111       .  S
C2322      H2328   1.110       .  S
C2329      C2330   1.413       .  A
C2329      C2334   1.410       .  A
C2329      H2336   1.083       .  S
C2330      C2331   1.421       .  A
C2331      C2332   1.408       .  A
C2331      C2338   1.508       .  S
C2332      C2333   1.405       .  A
C2332      H2337   1.084       .  S
C2333      C2334   1.411       .  A
C2334      C2335   1.508       .  S
C2335      H2339   1.111       .  S
C2335      H2340   1.111       .  S
C2335      H2341   1.110       .  S
C2338      H2342   1.110       .  S
C2338      H2343   1.110       .  S
C2338      H2344   1.111       .  S
C2345      C2346   1.406       .  A
C2345      C3190   1.404       .  A
C2345      H2352   1.084       .  S
C2346      C2347   1.427       .  A
C2347      C2348   1.410       .  A
C2347      C2354   1.508       .  S
C2348      C2349   1.399       .  A
C2348      H2353   1.084       .  S
C2349      C2727   1.481       .  S
C2349      C3190   1.415       .  A
C2350      C3185   1.403       .  A
C2350      C3189   1.414       .  A
C2350      C2351   1.509   1_565  S
C2351      H2355   1.111       .  S
C2351      H2356   1.111       .  S
C2351      H2357   1.109       .  S
C2354      H2358   1.110       .  S
C2354      H2359   1.110       .  S
C2354      H2360   1.111       .  S
C2361      C2362   1.410       .  A
C2361      C2366   1.409   1_545  A
C2361      H2368   1.083       .  S
C2362      C2363   1.422       .  A
C2363      C3204   1.403       .  A
C2363      C2370   1.510       .  S
C2364      C3203   1.402       .  A
C2364      C2365   1.404       .  A
C2364      H2369   1.084       .  S
C2365      C3206   1.416       .  A
C2366      C3205   1.416   1_565  A
C2366      C2367   1.507       .  S
C2367      H2371   1.111       .  S
C2367      H2372   1.110       .  S
C2367      H2373   1.111       .  S
C2370      H2374   1.110       .  S
C2370      H2375   1.111       .  S
C2370      H3216   1.111       .  S
H2376      C3210   1.111       .  S
C2377      C2378   1.408       .  A
C2377      C2382   1.412       .  A
C2377      H2384   1.084       .  S
C2378      C2379   1.412       .  A
C2379      C3220   1.398       .  A
C2379      C3226   1.510       .  S
C2380      C3219   1.402       .  A
C2380      C3221   1.409       .  A
C2380      H2385   1.084       .  S
C2381      C2551   1.497   1_545  S
C2381      C3220   1.410       .  A
C2381      C2382   1.418       .  A
C2382      C2383   1.506       .  S
C2383      H2387   1.111       .  S
C2383      H2388   1.111       .  S
C2383      H2389   1.109       .  S
C2386      C3219   1.511       .  S
C2386      H2390   1.111       .  S
C2386      H2391   1.110       .  S
C2386      H2392   1.111       .  S
C2393      C2394   1.413       .  A
C2393      C2398   1.409       .  A
C2393      H2400   1.083       .  S
C2394      C2395   1.421       .  A
C2395      C2396   1.406       .  A
C2395      C2402   1.508       .  S
C2396      C2397   1.405       .  A
C2396      H2401   1.085       .  S
C2397      C2398   1.412       .  A
C2398      C2399   1.508       .  S
C2399      H2403   1.111       .  S
C2399      H2404   1.111       .  S
C2399      H2405   1.110       .  S
C2402      H2406   1.111       .  S
C2402      H2407   1.110       .  S
C2402      H2408   1.110       .  S
C2409      C2410   1.402       .  A
C2409      C2414   1.405       .  A
C2409      H2416   1.084       .  S
C2410      C2411   1.412       .  A
C2411      C2412   1.409       .  A
C2411      C2418   1.507       .  S
C2412      C2413   1.409       .  A
C2412      H2417   1.084       .  S
C2413      C2414   1.417       .  A
C2414      C2415   1.508       .  S
C2415      H2419   1.111       .  S
C2415      H2420   1.111       .  S
C2415      H2421   1.109       .  S
C2418      H2422   1.111       .  S
C2418      H2423   1.110       .  S
C2418      H2424   1.110       .  S
C2425      C2426   1.405       .  A
C2425      H2432   1.084       .  S
C2427      C2428   1.399       .  A
C2427      C2434   1.512       .  S
C2428      C2429   1.405       .  A
C2428      H2433   1.083       .  S
C2429      C2430   1.423       .  A
C2430      C2431   1.507       .  S
C2431      H2436   1.110       .  S
C2431      H2437   1.111       .  S
C2434      H2438   1.109   1_554  S
C2434      H2439   1.110   1_554  S
C2434      H2440   1.111       .  S
C2441      C2442   1.411       .  A
C2441      C2446   1.404       .  A
C2441      H2448   1.084       .  S
C2442      C2443   1.419       .  A
C2443      C2444   1.406       .  A
C2443      C2450   1.508       .  S
C2444      C2445   1.403       .  A
C2444      H2449   1.084       .  S
C2445      C2446   1.409       .  A
C2446      C2447   1.507       .  S
C2447      H2451   1.111       .  S
C2447      H2452   1.109       .  S
C2447      H2453   1.111       .  S
C2450      H2454   1.110       .  S
C2450      H2455   1.111       .  S
C2450      H2456   1.111       .  S
C2457      C2458   1.405       .  A
C2457      C2462   1.403       .  A
C2457      H2464   1.084       .  S
C2458      C2459   1.420       .  A
C2459      C2460   1.401       .  A
C2459      C2466   1.509       .  S
C2460      C2461   1.405       .  A
C2460      H2465   1.084       .  S
C2461      C2462   1.420       .  A
C2462      C3303   1.509       .  S
C2463      C3302   1.509       .  S
C2463      H3307   1.111       .  S
C2463      H2468   1.109       .  S
C2463      H2469   1.111       .  S
C2466      H2471   1.110       .  S
C2466      H2472   1.111       .  S
H2467      C3303   1.111       .  S
C2473      C2474   1.415       .  A
C2473      C2478   1.400       .  A
C2473      H2480   1.084       .  S
C2474      C2475   1.412       .  A
C2475      C2476   1.404       .  A
C2475      C2482   1.506       .  S
C2476      C2477   1.410       .  A
C2476      H2481   1.084       .  S
C2477      C2478   1.408       .  A
C2478      C2479   1.508       .  S
C2479      H2483   1.111       .  S
C2479      H2484   1.110       .  S
C2479      H2485   1.110       .  S
C2482      H2486   1.107       .  S
C2482      H2487   1.110       .  S
C2482      H2488   1.111       .  S
C2489      C2490   1.410   1_554  A
C2489      C2494   1.396       .  A
C2490      C2491   1.415       .  A
C2491      C2492   1.412       .  A
C2491      C2498   1.504       .  S
C2492      C2493   1.410       .  A
C2492      H2497   1.084       .  S
C2493      C2494   1.414   1_556  A
C2494      C2495   1.513       .  S
C2495      H2501   1.110       .  S
C2498      H2502   1.109       .  S
C2498      H2503   1.110       .  S
C2498      H2504   1.111       .  S
C2505      C2506   1.405       .  A
C2505      C2510   1.401       .  A
C2505      H2512   1.084       .  S
C2506      C2507   1.426       .  A
C2507      C2508   1.407       .  A
C2507      C2514   1.507       .  S
C2508      C2509   1.398       .  A
C2508      H2513   1.085       .  S
C2509      C2510   1.415       .  A
C2510      C2511   1.507       .  S
C2511      H2515   1.111       .  S
C2511      H2516   1.109       .  S
C2511      H2517   1.109       .  S
C2514      H2518   1.110       .  S
C2514      H2519   1.110   1_554  S
C2514      H2520   1.111       .  S
O2521     Cr2539   1.946       .  S
O2521      C2529   1.251       .  A
O2522     Cr2539   2.036   1_554  S
O2522      C2523   1.276       .  A
C2523      O2524   1.258   1_554  A
C2523      C3266   1.493       .  S
O2524     Cr2540   1.954       .  S
O2525     Cr2540   2.028       .  S
C2526      O2527   1.255       .  A
C2526      C3298   1.495       .  S
O2528     Cr2541   2.037       .  S
O2528      C2529   1.268       .  A
O2530     Cr2539   2.038       .  S
O2530      C2538   1.274       .  A
O2531     Cr2539   1.967       .  S
O2531      C2532   1.253       .  A
C2532      O2533   1.269       .  A
C2532      C3346   1.501   1_556  S
O2533     Cr2540   2.026       .  S
O2534     Cr2540   1.971       .  S
O2534      C2535   1.261       .  A
C2535      O2536   1.274       .  A
C2535      C3282   1.483       .  S
O2536     Cr2541   2.035       .  S
O2537     Cr2541   1.930       .  S
O2537      C2538   1.253       .  A
C2538      C3314   1.491       .  S
Cr2539     O2542   1.762       .  S
Cr2540     O2542   1.764       .  S
Cr2541     O2542   1.765       .  S
O2543     Cr2561   1.952       .  S
O2543      C2551   1.255       .  A
O2544     Cr2561   2.028       .  S
O2544      C2545   1.272       .  A
C2545      O2546   1.261       .  A
C2545      C3205   1.494   1_565  S
O2546     Cr2562   1.963       .  S
O2547     Cr2562   2.011       .  S
C2548      C3301   1.488       .  S
O2549     Cr2563   1.965   1_545  S
O2550     Cr2563   2.033       .  S
O2550      C2551   1.269       .  A
O2552     Cr2561   2.025       .  S
O2552      C2560   1.270       .  A
O2553     Cr2561   1.974       .  S
O2553      C2554   1.257       .  A
C2554      O2555   1.266       .  A
C2554      C3234   1.502       .  S
O2555     Cr2562   2.022       .  S
O2556     Cr2562   1.961       .  S
O2556      C2557   1.262       .  A
C2557      O2558   1.274       .  A
C2557      C3250   1.477       .  S
O2558     Cr2563   2.028       .  S
O2559     Cr2563   1.942       .  S
O2559      C2560   1.253       .  A
C2560      C3317   1.478       .  S
Cr2561     O2564   1.762       .  S
Cr2562     O2564   1.766       .  S
Cr2563     O2564   1.770       .  S
O2565     Cr2583   1.999       .  S
O2565      C2573   1.262       .  A
O2566     Cr2583   1.989       .  S
O2566      C2567   1.267       .  A
C2567      O2568   1.269       .  A
C2567      C3106   1.486       .  S
O2568     Cr2584   2.009       .  S
O2569     Cr2584   1.990       .  S
O2569      C2570   1.262       .  A
C2570      O2571   1.254       .  A
C2570      C3138   1.480       .  S
O2571     Cr2585   1.972       .  S
O2572     Cr2585   1.999       .  S
O2572      C2573   1.264       .  A
C2573      C3173   1.478       .  S
O2574     Cr2583   1.999       .  S
O2574      C2582   1.264       .  A
O2575     Cr2583   1.990       .  S
O2575      C2576   1.256       .  A
C2576      O2577   1.262       .  A
C2576      C3186   1.495       .  S
O2577     Cr2584   1.994       .  S
O2578     Cr2584   1.997       .  S
O2578      C2579   1.265       .  A
C2579      O2580   1.264       .  A
C2579      C3122   1.478       .  S
O2580     Cr2585   1.991       .  S
O2581     Cr2585   1.981       .  S
O2581      C2582   1.258       .  A
C2582      C3154   1.468       .  S
Cr2583     O2586   1.776       .  S
Cr2584     O2586   1.767       .  S
Cr2585     O2586   1.771       .  S
O2587     Cr2605   1.994       .  S
O2587      C2595   1.262       .  A
O2588     Cr2605   1.986       .  S
O2588      C2589   1.265       .  A
C2589      O2590   1.269       .  A
C2589      C3042   1.482       .  S
O2590     Cr2606   2.008       .  S
O2591     Cr2606   1.997       .  S
C2592      C3141   1.466       .  S
O2593     Cr2607   1.980       .  S
O2594     Cr2607   2.006       .  S
O2594      C2595   1.269       .  A
O2596     Cr2605   2.005       .  S
O2596      C2604   1.265       .  A
O2597     Cr2605   1.994       .  S
O2597      C2598   1.259       .  A
C2598      O2599   1.259       .  A
C2598      C3074   1.485       .  S
O2599     Cr2606   1.988       .  S
O2600     Cr2606   2.007       .  S
O2600      C2601   1.270       .  A
C2601      O2602   1.266       .  A
C2601      C3090   1.493       .  S
O2602     Cr2607   1.992       .  S
O2603     Cr2607   1.974       .  S
O2603      C2604   1.256       .  A
C2604      C3157   1.487       .  S
Cr2605     O2608   1.772       .  S
Cr2606     O2608   1.768       .  S
Cr2607     O2608   1.769       .  S
O2609     Cr2627   1.945       .  S
O2609      C2617   1.250       .  A
O2610     Cr2627   2.034       .  S
O2610      C2611   1.275       .  A
C2611      O2612   1.260       .  A
C2611      C3125   1.489       .  S
O2612     Cr2628   1.961       .  S
O2613     Cr2628   2.026       .  S
C2614      O2615   1.256       .  A
C2614      C3010   1.474       .  S
O2616     Cr2629   2.027       .  S
O2616      C2617   1.266       .  A
O2618     Cr2627   2.027       .  S
O2618      C2626   1.271       .  A
O2619     Cr2627   1.962       .  S
O2619      C2620   1.251       .  A
C2620      O2621   1.268       .  A
C2620      C3058   1.499       .  S
O2621     Cr2628   2.025       .  S
O2622     Cr2628   1.981       .  S
O2622      C2623   1.260       .  A
C2623      O2624   1.272       .  A
C2623      C3269   1.497       .  S
O2624     Cr2629   2.018       .  S
O2625     Cr2629   1.933       .  S
O2625      C2626   1.251       .  A
C2626      C3029   1.465       .  S
Cr2627     O2630   1.767       .  S
Cr2628     O2630   1.771       .  S
Cr2629     O2630   1.767       .  S
O2631     Cr2649   1.998       .  S
O2631      C2639   1.263       .  A
O2632     Cr2649   1.972   1_556  S
O2632      C2633   1.260       .  A
C2633      O2634   1.268       .  A
C2633      C3253   1.471       .  S
O2634     Cr2650   2.008   1_556  S
O2635     Cr2650   1.984       .  S
O2635      C2636   1.259       .  A
C2636      O2637   1.258       .  A
C2636      C3013   1.473       .  S
O2637     Cr2651   1.988       .  S
O2638     Cr2651   2.010       .  S
O2638      C2639   1.269       .  A
C2639      C3349   1.487       .  S
O2640     Cr2649   1.983       .  S
O2640      C2648   1.263       .  A
O2641     Cr2649   2.012   1_556  S
O2641      C2642   1.263   1_556  A
C2642      O2643   1.257       .  A
C2642      C3333   1.495   1_554  S
O2643     Cr2650   1.973       .  S
O2644     Cr2650   2.008       .  S
O2644      C2645   1.270       .  A
C2645      O2646   1.268       .  A
C2645      C3045   1.507       .  S
O2646     Cr2651   2.001       .  S
O2647     Cr2651   1.992       .  S
O2647      C2648   1.259       .  A
C2648      C3026   1.467       .  S
Cr2649     O2652   1.772       .  S
Cr2650     O2652   1.766       .  S
Cr2651     O2652   1.770       .  S
O2653     Cr2671   1.997       .  S
O2653      C2661   1.262       .  A
O2654     Cr2671   1.985       .  S
O2654      C2655   1.263       .  A
C2655      O2656   1.270       .  A
C2655      C3285   1.493       .  S
O2656     Cr2672   2.006       .  S
O2657     Cr2672   1.991       .  S
O2657      C2658   1.261       .  A
C2658      O2659   1.258       .  A
C2658      C2981   1.479       .  S
O2659     Cr2673   1.980       .  S
O2660     Cr2673   2.006       .  S
O2660      C2661   1.267       .  A
C2661      C3237   1.486       .  S
O2662     Cr2671   1.994       .  S
O2662      C2670   1.266       .  A
O2663     Cr2671   2.003       .  S
O2663      C2664   1.260       .  A
C2664      O2665   1.258       .  A
C2664      C3218   1.493       .  S
O2665     Cr2672   1.983       .  S
O2666     Cr2672   2.002       .  S
O2666      C2667   1.267       .  A
C2667      O2668   1.269       .  A
C2667      C2962   1.497       .  S
O2668     Cr2673   2.007       .  S
O2669     Cr2673   1.984       .  S
O2669      C2670   1.258       .  A
C2670      C2997   1.474       .  S
Cr2671     O2674   1.775       .  S
Cr2672     O2674   1.768       .  S
Cr2673     O2674   1.767       .  S
O2675     Cr2693   1.955       .  S
O2675      C2683   1.252       .  A
O2676     Cr2693   2.025       .  S
O2676      C2677   1.272       .  A
C2677      O2678   1.259       .  A
C2677      C2914   1.471   1_655  S
O2678     Cr2694   1.961       .  S
O2679     Cr2694   2.018       .  S
C2680      O2681   1.256       .  A
C2680      C2978   1.480       .  S
O2682     Cr2695   2.023       .  S
O2682      C2683   1.265       .  A
O2684     Cr2693   2.024       .  S
O2684      C2692   1.271       .  A
O2685     Cr2693   1.961       .  S
O2685      C2686   1.253       .  A
C2686      O2687   1.267       .  A
C2686      C2949   1.496       .  S
O2687     Cr2694   2.030       .  S
O2688     Cr2694   1.986       .  S
O2688      C2689   1.266       .  A
C2689      O2690   1.268       .  A
C2689      C3202   1.499       .  S
O2690     Cr2695   2.015       .  S
O2691     Cr2695   1.940       .  S
O2691      C2692   1.252       .  A
C2692      C2994   1.470       .  S
Cr2693     O2696   1.771       .  S
Cr2694     O2696   1.771       .  S
Cr2695     O2696   1.767       .  S
O2697     Cr2715   1.953       .  S
O2697      C2705   1.254       .  A
O2698     Cr2715   2.033       .  S
O2698      C2699   1.275       .  A
C2699      O2700   1.259       .  A
C2699      C2834   1.495   1_655  S
O2700     Cr2716   1.956       .  S
O2701     Cr2716   2.014       .  S
C2702      O2703   1.257       .  A
C2702      C2850   1.490       .  S
O2704     Cr2717   2.028       .  S
O2704      C2705   1.268       .  A
O2706     Cr2715   2.018       .  S
O2706      C2714   1.269       .  A
O2707     Cr2715   1.966       .  S
O2707      C2708   1.253       .  A
C2708      O2709   1.262       .  A
C2708      C2898   1.493       .  S
O2709     Cr2716   2.014       .  S
O2710     Cr2716   1.974       .  S
O2710      C2711   1.262       .  A
C2711      O2712   1.276       .  A
C2711      C3109   1.492       .  S
O2712     Cr2717   2.032       .  S
O2713     Cr2717   1.946       .  S
O2713      C2714   1.254       .  A
C2714      C2869   1.464       .  S
Cr2715     O2718   1.769       .  S
Cr2716     O2718   1.772       .  S
Cr2717     O2718   1.770       .  S
O2719     Cr2737   1.956       .  S
O2719      C2727   1.252       .  A
O2720     Cr2737   2.033       .  S
O2720      C2721   1.276       .  A
C2721      O2722   1.260       .  A
C2721      C3093   1.473       .  S
O2722     Cr2738   1.955       .  S
O2723     Cr2738   2.016       .  S
C2724      O2725   1.253       .  A
C2724      C2853   1.483       .  S
O2726     Cr2739   2.026       .  S
O2726      C2727   1.267       .  A
O2728     Cr2737   2.027       .  S
O2728      C2736   1.272       .  A
O2729     Cr2737   1.973       .  S
O2729      C2730   1.254       .  A
C2730      O2731   1.262       .  A
C2730      C3170   1.499       .  S
O2731     Cr2738   2.014       .  S
O2732     Cr2738   1.973       .  S
O2732      C2733   1.263       .  A
C2733      O2734   1.276       .  A
C2733      C2818   1.492       .  S
O2734     Cr2739   2.038       .  S
O2735     Cr2739   1.936       .  S
O2735      C2736   1.251       .  A
C2736      C2866   1.480       .  S
Cr2737     O2740   1.769       .  S
Cr2738     O2740   1.772       .  S
Cr2739     O2740   1.769       .  S
O2741     Cr2759   1.939       .  S
O2741      C2749   1.252       .  A
O2742     Cr2759   2.047       .  S
O2742      C2743   1.278       .  A
C2743      O2744   1.260       .  A
C2743      C2965   1.487   1_565  S
O2744     Cr2760   1.966       .  S
O2745     Cr2760   2.014       .  S
C2746      C2789   1.470       .  S
O2747     Cr2761   1.971   1_545  S
O2748     Cr2761   2.041       .  S
O2748      C2749   1.271       .  A
O2750     Cr2759   2.038       .  S
O2750      C2758   1.273       .  A
O2751     Cr2759   1.956       .  S
O2751      C2752   1.249       .  A
C2752      O2753   1.266       .  A
C2752      C2930   1.484       .  S
O2753     Cr2760   2.030       .  S
O2754     Cr2760   1.973       .  S
O2754      C2755   1.263       .  A
C2755      O2756   1.277       .  A
C2755      C2837   1.500       .  S
O2756     Cr2761   2.030       .  S
O2757     Cr2761   1.946       .  S
O2757      C2758   1.251       .  A
C2758      C2802   1.479       .  S
Cr2759     O2762   1.768       .  S
Cr2760     O2762   1.774       .  S
Cr2761     O2762   1.770       .  S
O2763     Cr2781   2.002       .  S
O2763      C2771   1.266       .  A
O2764     Cr2781   1.997       .  S
O2764      C2765   1.267       .  A
C2765      O2766   1.267       .  A
C2765      C2821   1.492       .  S
O2766     Cr2782   2.000       .  S
O2767     Cr2782   1.990       .  S
O2767      C2768   1.260       .  A
C2768      O2769   1.258       .  A
C2768      C2786   1.476       .  S
O2769     Cr2783   1.984       .  S
O2770     Cr2783   1.987       .  S
O2770      C2771   1.265       .  A
C2771      C2901   1.480       .  S
O2772     Cr2781   2.010       .  S
O2772      C2780   1.267       .  A
O2773     Cr2781   2.001       .  S
O2773      C2774   1.261       .  A
C2774      O2775   1.257       .  A
C2774      C2885   1.495       .  S
O2775     Cr2782   1.975       .  S
O2776     Cr2782   2.006       .  S
O2776      C2777   1.268       .  A
C2777      O2778   1.264       .  A
C2777      C2917   1.483       .  S
O2778     Cr2783   1.979       .  S
O2779     Cr2783   1.991       .  S
O2779      C2780   1.257       .  A
C2780      C2805   1.482       .  S
Cr2781     O2784   1.771       .  S
Cr2782     O2784   1.769       .  S
Cr2783     O2784   1.770       .  S
C2785      C2786   1.407       .  A
C2785      C2790   1.401       .  A
C2785      H2792   1.085       .  S
C2786      C2787   1.411       .  A
C2787      C2788   1.403       .  A
C2787      C2794   1.505       .  S
C2788      C2789   1.405       .  A
C2788      H2793   1.085       .  S
C2789      C2790   1.408       .  A
C2790      C2791   1.508       .  S
C2791      H2795   1.111       .  S
C2791      H2796   1.111       .  S
C2791      H2797   1.110       .  S
C2794      H2798   1.108       .  S
C2794      H2799   1.108       .  S
C2794      H2800   1.111       .  S
C2801      C2802   1.401       .  A
C2801      C2806   1.409       .  A
C2801      H2808   1.084       .  S
C2802      C2803   1.417       .  A
C2803      C2804   1.405       .  A
C2803      C2810   1.509       .  S
C2804      C2805   1.400       .  A
C2804      H2809   1.085       .  S
C2805      C2806   1.419       .  A
C2806      C2807   1.508       .  S
C2807      H2811   1.111       .  S
C2807      H2812   1.111       .  S
C2807      H2813   1.109       .  S
C2810      H2814   1.108       .  S
C2810      H2815   1.111       .  S
C2810      H2816   1.111       .  S
C2817      C2818   1.409       .  A
C2817      C2822   1.409       .  A
C2817      H2824   1.084       .  S
C2818      C2819   1.416       .  A
C2819      C2820   1.406       .  A
C2819      C2826   1.508       .  S
C2820      C2821   1.407       .  A
C2820      H2825   1.083       .  S
C2821      C2822   1.414       .  A
C2822      C2823   1.506       .  S
C2823      H2827   1.111       .  S
C2823      H2828   1.110       .  S
C2823      H2829   1.110       .  S
C2826      H2830   1.109       .  S
C2826      H2831   1.109       .  S
C2826      H2832   1.111       .  S
C2833      C2838   1.409       .  A
C2835      C2836   1.404       .  A
C2835      C2842   1.511       .  S
C2836      C2837   1.406       .  A
C2836      H2841   1.083       .  S
C2837      C2838   1.424       .  A
C2838      C2839   1.509       .  S
C2839      H2843   1.111       .  S
C2839      H2844   1.110       .  S
C2839      H2845   1.111       .  S
C2842      H2847   1.111       .  S
C2842      H2848   1.111       .  S
C2849      C2850   1.409       .  A
C2849      C2854   1.403       .  A
C2849      H2856   1.084       .  S
C2850      C2851   1.419       .  A
C2851      C2852   1.401       .  A
C2851      C2858   1.509       .  S
C2852      C2853   1.403       .  A
C2852      H2857   1.083       .  S
C2853      C2854   1.416       .  A
C2854      C2855   1.509       .  S
C2855      H2859   1.111       .  S
C2855      H2861   1.110       .  S
C2858      H2863   1.110       .  S
C2858      H2864   1.111       .  S
C2865      C2866   1.403       .  A
C2865      C2870   1.405       .  A
C2865      H2872   1.084       .  S
C2866      C2867   1.424       .  A
C2867      C2868   1.398       .  A
C2867      C2874   1.511       .  S
C2868      C2869   1.394       .  A
C2868      H2873   1.085       .  S
C2869      C2870   1.412       .  A
C2870      C2871   1.506       .  S
C2871      H2875   1.111       .  S
C2871      H2876   1.111       .  S
C2871      H2877   1.110       .  S
C2874      H2878   1.109       .  S
C2874      H2879   1.110       .  S
C2874      H2880   1.111       .  S
C2881      H2888   1.085   1_455  S
C2882      C2883   1.409       .  A
C2883      C2884   1.409       .  A
C2883      C2890   1.506       .  S
C2884      C2885   1.414       .  A
C2884      H2889   1.083       .  S
C2885      C2886   1.420       .  A
C2887      H2891   1.111   1_455  S
C2887      H2892   1.110       .  S
C2890      H2894   1.111       .  S
C2890      H2895   1.110       .  S
C2890      H2896   1.111       .  S
C2897      C2898   1.411       .  A
C2897      C2902   1.403       .  A
C2897      H2904   1.083       .  S
C2898      C2899   1.419       .  A
C2899      C2900   1.404       .  A
C2899      C2906   1.508       .  S
C2900      C2901   1.404       .  A
C2900      H2905   1.084       .  S
C2901      C2902   1.411       .  A
C2902      C2903   1.507       .  S
C2903      H2907   1.111       .  S
C2903      H2908   1.110       .  S
C2903      H2909   1.110       .  S
C2906      H2910   1.110       .  S
C2906      H2911   1.110       .  S
C2906      H2912   1.111       .  S
C2913      C2918   1.401       .  A
C2913      H2920   1.085       .  S
C2914      C2915   1.404   1_455  A
C2915      C2922   1.507       .  S
C2916      C2917   1.409       .  A
C2916      H2921   1.083       .  S
C2917      C2918   1.415       .  A
C2918      C2919   1.508       .  S
C2919      H2923   1.111       .  S
C2919      H2924   1.110       .  S
C2919      H2925   1.111       .  S
C2922      H2926   1.110       .  S
C2922      H2927   1.111       .  S
C2922      H2928   1.111       .  S
C2929      C2930   1.402       .  A
C2929      H2936   1.084       .  S
C2930      C2931   1.421       .  A
C2931      C2932   1.405       .  A
C2931      C2938   1.509       .  S
C2932      C2933   1.398       .  A
C2932      H2937   1.084       .  S
C2934      C2935   1.508       .  S
C2935      H2939   1.111       .  S
C2935      H2940   1.111       .  S
C2935      H2941   1.109       .  S
C2938      H2942   1.110       .  S
C2938      H2943   1.109       .  S
C2938      H2944   1.111       .  S
C2945      C2946   1.405       .  A
C2945      C2950   1.409       .  A
C2945      H2952   1.084       .  S
C2946      C2947   1.407       .  A
C2947      C2948   1.406       .  A
C2948      C2949   1.412       .  A
C2948      H2953   1.084       .  S
C2949      C2950   1.417       .  A
C2950      C2951   1.507       .  S
C2951      H2955   1.111       .  S
C2951      H2956   1.111       .  S
C2951      H2957   1.110       .  S
C2954      H2958   1.110       .  S
C2954      H2959   1.110   1_545  S
C2954      H2960   1.111       .  S
C2961      C2962   1.408       .  A
C2961      C2966   1.414       .  A
C2961      H2968   1.084       .  S
C2962      C2963   1.420       .  A
C2963      C2970   1.509       .  S
C2964      C2965   1.400   1_565  A
C2964      H2969   1.084       .  S
C2966      C2967   1.505       .  S
C2967      H2971   1.111       .  S
C2967      H2972   1.109       .  S
C2967      H2973   1.110       .  S
C2970      H2974   1.111       .  S
C2970      H2975   1.109       .  S
C2977      C2978   1.406       .  A
C2977      C2982   1.404       .  A
C2977      H2984   1.085       .  S
C2978      C2979   1.413       .  A
C2979      C2980   1.403       .  A
C2979      C2986   1.508       .  S
C2980      C2981   1.406       .  A
C2980      H2985   1.085       .  S
C2981      C2982   1.413       .  A
C2982      C2983   1.507       .  S
C2983      H2987   1.111       .  S
C2983      H2988   1.110       .  S
C2983      H2989   1.109       .  S
C2986      H2990   1.109       .  S
C2986      H2991   1.110       .  S
C2986      H2992   1.111       .  S
C2993      C2994   1.398       .  A
C2993      C2998   1.403       .  A
C2993      H3000   1.085       .  S
C2994      C2995   1.418       .  A
C2995      C2996   1.399       .  A
C2995      C3002   1.510       .  S
C2996      C2997   1.399       .  A
C2996      H3001   1.085       .  S
C2997      C2998   1.421       .  A
C2998      C2999   1.509       .  S
C2999      H3003   1.111       .  S
C2999      H3004   1.110       .  S
C2999      H3005   1.109       .  S
C3002      H3006   1.108       .  S
C3002      H3007   1.111       .  S
C3002      H3008   1.111       .  S
C3009      C3010   1.399       .  A
C3009      C3014   1.403       .  A
C3009      H3016   1.084       .  S
C3010      C3011   1.419       .  A
C3011      C3012   1.402       .  A
C3011      C3018   1.509       .  S
C3012      C3013   1.398       .  A
C3012      H3017   1.084       .  S
C3013      C3014   1.418       .  A
C3014      C3015   1.509       .  S
C3015      H3019   1.111       .  S
C3015      H3020   1.110       .  S
C3015      H3021   1.109       .  S
C3018      H3022   1.110       .  S
C3018      H3023   1.109       .  S
C3018      H3024   1.111       .  S
C3025      C3026   1.397       .  A
C3025      C3030   1.396       .  A
C3025      H3032   1.085       .  S
C3026      C3027   1.416       .  A
C3027      C3028   1.403       .  A
C3027      C3034   1.505       .  S
C3028      C3029   1.398       .  A
C3028      H3033   1.085       .  S
C3029      C3030   1.416       .  A
C3030      C3031   1.510       .  S
C3031      H3035   1.111       .  S
C3031      H3036   1.108       .  S
C3031      H3037   1.111       .  S
C3034      H3038   1.109       .  S
C3034      H3039   1.109       .  S
C3034      H3040   1.111       .  S
C3041      C3046   1.413       .  A
C3041      H3048   1.084       .  S
C3042      C3043   1.410       .  A
C3043      C3050   1.509       .  S
C3044      C3045   1.413       .  A
C3044      H3049   1.083       .  S
C3045      C3046   1.423       .  A
C3046      C3047   1.507       .  S
C3047      H3051   1.109       .  S
C3047      H3052   1.110       .  S
C3047      H3053   1.111       .  S
C3050      H3054   1.111       .  S
C3050      H3055   1.109       .  S
C3050      H3056   1.111       .  S
C3057      C3058   1.405       .  A
C3057      C3062   1.404       .  A
C3057      H3064   1.084       .  S
C3058      C3059   1.428       .  A
C3059      C3060   1.408       .  A
C3059      C3066   1.509       .  S
C3060      C3061   1.400       .  A
C3061      C3062   1.418       .  A
C3062      C3063   1.509   1_655  S
C3063      H3067   1.111       .  S
C3063      H3068   1.110       .  S
C3063      H3069   1.109       .  S
C3066      H3070   1.110       .  S
C3066      H3071   1.110       .  S
C3073      C3074   1.407       .  A
C3073      C3078   1.404       .  A
C3073      H3080   1.084       .  S
C3074      C3075   1.416       .  A
C3075      C3076   1.407       .  A
C3075      C3082   1.507       .  S
C3076      C3077   1.402       .  A
C3077      C3078   1.409       .  A
C3078      C3079   1.508       .  S
C3079      H3083   1.111       .  S
C3079      H3084   1.111       .  S
C3079      H3085   1.110       .  S
C3082      H3086   1.109       .  S
C3082      H3087   1.111       .  S
C3082      H3088   1.111   1_565  S
C3089      C3090   1.407       .  A
C3089      C3094   1.402       .  A
C3089      H3096   1.082       .  S
C3090      C3091   1.421       .  A
C3091      C3092   1.412       .  A
C3091      C3098   1.508       .  S
C3092      H3097   1.084       .  S
C3095      H3100   1.109       .  S
C3095      H3101   1.110       .  S
C3098      H3102   1.110       .  S
C3098      H3103   1.109       .  S
C3098      H3104   1.111       .  S
C3105      C3106   1.404       .  A
C3105      C3110   1.411       .  A
C3105      H3112   1.084       .  S
C3106      C3107   1.416       .  A
C3107      C3108   1.403       .  A
C3107      C3114   1.507       .  S
C3108      C3109   1.403       .  A
C3108      H3113   1.084       .  S
C3109      C3110   1.421       .  A
C3110      C3111   1.508       .  S
C3111      H3115   1.111       .  S
C3111      H3116   1.109       .  S
C3111      H3117   1.110       .  S
C3114      H3118   1.109       .  S
C3114      H3119   1.109       .  S
C3114      H3120   1.111       .  S
C3121      C3122   1.404       .  A
C3121      C3126   1.411       .  A
C3121      H3128   1.084       .  S
C3122      C3123   1.412       .  A
C3123      C3124   1.400       .  A
C3123      C3130   1.510       .  S
C3124      H3129   1.084       .  S
C3127      H3131   1.111       .  S
C3127      H3132   1.108       .  S
C3127      H3133   1.110       .  S
C3130      H3134   1.111       .  S
C3130      H3135   1.109       .  S
C3130      H3136   1.111       .  S
C3137      C3138   1.402       .  A
C3137      C3142   1.401       .  A
C3137      H3144   1.084       .  S
C3138      C3139   1.423       .  A
C3139      C3140   1.403       .  A
C3139      C3146   1.509       .  S
C3140      C3141   1.396       .  A
C3140      H3145   1.085       .  S
C3141      C3142   1.412       .  A
C3143      H3147   1.111       .  S
C3143      H3148   1.108       .  S
C3143      H3149   1.109       .  S
C3146      H3150   1.109       .  S
C3146      H3151   1.110       .  S
C3146      H3152   1.111       .  S
C3153      C3154   1.406       .  A
C3153      C3158   1.403       .  A
C3153      H3160   1.080       .  S
C3154      C3155   1.404       .  A
C3155      C3156   1.398       .  A
C3155      C3162   1.508       .  S
C3156      C3157   1.415       .  A
C3156      H3161   1.084       .  S
C3157      C3158   1.414       .  A
C3158      C3159   1.508       .  S
C3159      H3163   1.111       .  S
C3159      H3164   1.110       .  S
C3159      H3165   1.110       .  S
C3162      H3166   1.107       .  S
C3162      H3167   1.110       .  S
C3162      H3168   1.110       .  S
C3169      C3170   1.412       .  A
C3169      C3174   1.405       .  A
C3169      H3176   1.083       .  S
C3170      C3171   1.422       .  A
C3171      C3172   1.406       .  A
C3171      C3178   1.508       .  S
C3172      C3173   1.401       .  A
C3172      H3177   1.084       .  S
C3173      C3174   1.410       .  A
C3174      C3175   1.508       .  S
C3175      H3179   1.111       .  S
C3175      H3180   1.109       .  S
C3175      H3181   1.109       .  S
C3178      H3182   1.110       .  S
C3178      H3183   1.109       .  S
C3178      H3184   1.111       .  S
C3185      C3186   1.405       .  A
C3185      H3192   1.084       .  S
C3186      C3187   1.427       .  A
C3187      C3188   1.407       .  A
C3187      C3194   1.509       .  S
C3188      C3189   1.397       .  A
C3188      H3193   1.084       .  S
C3190      C3191   1.509       .  S
C3191      H3195   1.111       .  S
C3191      H3196   1.111       .  S
C3191      H3197   1.109       .  S
C3194      H3198   1.110       .  S
C3194      H3199   1.110       .  S
C3194      H3200   1.111       .  S
C3201      C3202   1.410       .  A
C3201      C3206   1.410       .  A
C3201      H3208   1.084       .  S
C3202      C3203   1.423       .  A
C3203      C3210   1.511       .  S
C3204      C3205   1.406       .  A
C3204      H3209   1.084       .  S
C3206      C3207   1.507       .  S
C3207      H3211   1.111       .  S
C3207      H3212   1.109       .  S
C3207      H3213   1.111       .  S
C3210      H3214   1.110       .  S
C3210      H3215   1.110       .  S
C3217      C3218   1.411       .  A
C3217      C3222   1.413       .  A
C3217      H3224   1.083       .  S
C3218      C3219   1.416       .  A
C3220      H3225   1.083       .  S
C3221      C3222   1.415       .  A
C3222      C3223   1.506       .  S
C3223      H3227   1.111       .  S
C3223      H3228   1.111       .  S
C3223      H3229   1.110       .  S
C3226      H3230   1.110       .  S
C3226      H3231   1.105       .  S
C3226      H3232   1.111       .  S
C3233      C3234   1.412       .  A
C3233      C3238   1.407       .  A
C3233      H3240   1.082       .  S
C3234      C3235   1.422       .  A
C3235      C3236   1.407       .  A
C3235      C3242   1.508       .  S
C3236      C3237   1.405       .  A
C3236      H3241   1.085       .  S
C3237      C3238   1.411       .  A
C3238      C3239   1.508       .  S
C3239      H3243   1.111       .  S
C3239      H3244   1.111       .  S
C3239      H3245   1.110       .  S
C3242      H3246   1.111       .  S
C3242      H3247   1.110       .  S
C3242      H3248   1.110       .  S
C3249      C3250   1.405       .  A
C3249      C3254   1.401       .  A
C3249      H3256   1.084       .  S
C3250      C3251   1.414       .  A
C3251      C3252   1.405       .  A
C3251      C3258   1.507       .  S
C3252      C3253   1.404       .  A
C3252      H3257   1.085       .  S
C3253      C3254   1.409       .  A
C3254      C3255   1.507       .  S
C3255      H3259   1.111       .  S
C3255      H3260   1.111       .  S
C3255      H3261   1.109       .  S
C3258      H3262   1.110       .  S
C3258      H3263   1.109       .  S
C3258      H3264   1.111       .  S
C3265      C3266   1.405       .  A
C3265      H3272   1.084       .  S
C3267      C3268   1.399       .  A
C3267      C3274   1.513       .  S
C3268      C3269   1.403       .  A
C3268      H3273   1.083       .  S
C3269      C3270   1.422       .  A
C3270      C3271   1.508       .  S
C3271      H3276   1.110       .  S
C3271      H3277   1.110       .  S
C3274      H3278   1.110       .  S
C3274      H3279   1.111   1_554  S
C3274      H3280   1.111       .  S
C3281      C3282   1.405       .  A
C3281      C3286   1.408       .  A
C3281      H3288   1.085       .  S
C3282      C3283   1.412       .  A
C3283      C3284   1.404       .  A
C3283      C3290   1.508       .  S
C3284      C3285   1.409       .  A
C3284      H3289   1.084       .  S
C3285      C3286   1.419       .  A
C3286      C3287   1.507       .  S
C3287      H3291   1.111       .  S
C3287      H3292   1.110       .  S
C3287      H3293   1.110       .  S
C3290      H3294   1.110       .  S
C3290      H3295   1.110       .  S
C3290      H3296   1.111       .  S
C3297      C3298   1.406       .  A
C3297      C3302   1.406       .  A
C3297      H3304   1.084       .  S
C3298      C3299   1.424       .  A
C3299      C3300   1.402       .  A
C3299      C3306   1.509       .  S
C3300      C3301   1.401       .  A
C3300      H3305   1.084       .  S
C3301      C3302   1.418       .  A
C3303      H3308   1.110       .  S
C3303      H3309   1.111   1_545  S
C3306      H3311   1.110       .  S
C3306      H3312   1.111       .  S
C3313      C3314   1.413       .  A
C3313      C3318   1.397       .  A
C3313      H3320   1.083       .  S
C3314      C3315   1.414       .  A
C3315      C3316   1.406       .  A
C3315      C3322   1.507       .  S
C3316      C3317   1.409       .  A
C3316      H3321   1.084       .  S
C3317      C3318   1.407       .  A
C3318      C3319   1.507       .  S
C3319      H3323   1.109       .  S
C3319      H3324   1.111       .  S
C3319      H3325   1.108       .  S
C3322      H3326   1.109       .  S
C3322      H3327   1.110       .  S
C3322      H3328   1.111       .  S
C3329      C3330   1.408   1_554  A
C3329      C3334   1.399       .  A
C3330      C3331   1.414       .  A
C3331      C3332   1.415       .  A
C3331      C3338   1.504       .  S
C3332      C3333   1.412       .  A
C3332      H3337   1.084       .  S
C3333      C3334   1.418   1_556  A
C3334      C3335   1.512       .  S
C3335      H3341   1.110       .  S
C3338      H3342   1.108       .  S
C3338      H3343   1.110       .  S
C3338      H3344   1.111       .  S
C3345      C3346   1.405       .  A
C3345      C3350   1.403       .  A
C3345      H3352   1.084       .  S
C3346      C3347   1.428       .  A
C3347      C3348   1.411       .  A
C3347      C3354   1.508       .  S
C3348      C3349   1.401       .  A
C3348      H3353   1.084       .  S
C3349      C3350   1.416       .  A
C3350      C3351   1.506       .  S
C3351      H3355   1.111       .  S
C3351      H3356   1.109       .  S
C3351      H3357   1.109       .  S
C3354      H3358   1.110       .  S
C3354      H3359   1.110   1_554  S
C3354      H3360   1.111       .  S
