geometry optimzed in LAMMPS
_audit_creation_date              2020-12-01 
_audit_creation_method            'lammps2cif' 
_symmetry_space_group_name_H-M    'P1' 
_symmetry_Int_Tables_number       1 
_symmetry_cell_setting            triclinic 
loop_ 
_symmetry_equiv_pos_as_xyz 
  x,y,z 
_cell_length_a                    44.05037909 
_cell_length_b                    44.10014338909279 
_cell_length_c                    28.491731166724946 
_cell_angle_alpha                 89.96475957036485 
_cell_angle_beta                  90.01631843138668 
_cell_angle_gamma                 90.0929160703903 
loop_ 
_atom_site_label 
_atom_site_type_symbol 
_atom_site_fract_x 
_atom_site_fract_y 
_atom_site_fract_z 
_atom_site_charge 
Zr1        Zr  0.59916416  0.04530960  0.65319493     2.17500
O2          O  0.62833846  0.00943706  0.60610379    -0.51000
O3          O  0.56084775  0.02131844  0.60041160    -0.74200
O4          O  0.61456284  0.99932020  0.69685764    -0.81000
O5          O  0.62192007  0.11430788  0.57647902    -0.82800
O6          O  0.59701315  0.00216074  0.77188615    -0.78400
O7          O  0.63553708  0.06621549  0.59550084    -0.90000
O8          O  0.51336290  0.03298757  0.62504353    -0.76000
O9          O  0.55626706  0.03906741  0.70348811    -0.85500
O10         O  0.56205128  0.08042629  0.62548051    -0.85200
O11         O  0.61673326  0.05764307  0.73172790    -0.71900
O12         O  0.62105131  0.09495802  0.66262623    -0.84100
Zr13       Zr  0.55710155  0.13509893  0.76007465     2.26400
Zr14       Zr  0.57312617  0.05148298  0.78140075     2.06300
Zr15       Zr  0.58404122  0.12976424  0.63344524     2.10000
Zr16       Zr  0.51941969  0.07469817  0.67652143     1.78800
O17         O  0.61661887  0.17320520  0.61736870    -0.92900
O18         O  0.48269111  0.04121535  0.71412629    -0.40700
O19         O  0.54041171  0.12403136  0.68239730    -0.77300
O20         O  0.53473608  0.08562572  0.75429819    -0.96000
O21         O  0.59429742  0.10127825  0.79002612    -0.89300
O22         O  0.60023225  0.14272747  0.71119636    -0.92100
C23         C  0.53156966  0.01913340  0.59791895     1.01600
C24         C  0.63900857  0.09094880  0.57170739     1.14500
C25         C  0.61107991  0.98851982  0.73856632     1.05300
O26         O  0.53818316  0.01161743  0.80563674    -0.94300
O27         O  0.54181836  0.06957465  0.84679152    -0.90000
O28         O  0.53392132  0.11981292  0.83333610    -0.83200
C29         C  0.53036123  0.09552125  0.85747039     1.12000
O30         O  0.68517137  0.08116339  0.73240144    -0.96300
Zr31       Zr  0.63714655  0.10810227  0.74053568     1.88900
O32         O  0.59208089  0.16983758  0.79673052    -0.72900
O33         O  0.60672232  0.04497115  0.84848648    -0.52200
O34         O  0.66010210  0.09336422  0.81503684    -0.96900
O35         O  0.67399068  0.13803189  0.69649941    -0.54100
O36         O  0.64066483  0.15473862  0.78689384    -0.73400
C37         C  0.62065370  0.17333715  0.80259464     0.98900
O38         O  0.52266169  0.16780171  0.80415417    -0.62300
O39         O  0.55903999  0.13288680  0.55724973    -0.57100
O40         O  0.53323782  0.17354615  0.71175555    -0.93700
O41         O  0.55178610  0.17451136  0.63754611    -0.92200
O42         O  0.49394246  0.09429691  0.60699540    -0.92500
O43         O  0.47311559  0.10120425  0.69882342    -0.91300
C44         C  0.53445157  0.18463101  0.67015775     1.17800
H45         H  0.55669015  0.07708147  0.59302654     0.33700
H46         H  0.51629184  0.08390296  0.77233110     0.44500
H47         H  0.60725425  0.16349088  0.71128410     0.38100
H48         H  0.63285395  0.04423096  0.74137551     0.34600
H49         H  0.46815334  0.03570359  0.68901530     0.26300
H50         H  0.60334304  0.06313798  0.86819503     0.32300
H51         H  0.64837753  0.10422606  0.83942097     0.38200
H52         H  0.49520703  0.11662469  0.61010174     0.32600
H53         H  0.53865675  0.14130499  0.56374959     0.31500
H54         H  0.60936559  0.18119087  0.58688605     0.33200
H55         H  0.66446953  0.15822070  0.69292846     0.32200
H56         H  0.47955128  0.11570225  0.72343210     0.36200
H57         H  0.52889857  0.18892408  0.79727795     0.28900
H58         H  0.61689245  0.99010214  0.60720673     0.33100
H59         H  0.70077509  0.09475338  0.74602033     0.36000
H60         H  0.56985098  0.14932245  0.54043859     0.28600
H61         H  0.50251669  0.16541300  0.78915938     0.41500
H62         H  0.51773107  0.02052952  0.80165281     0.31500
H63         H  0.49405087  0.02229308  0.72041415     0.39100
H64         H  0.67372103  0.12931887  0.66447506     0.31000
H65         H  0.59757762  0.02809851  0.86658319     0.31100
H66         H  0.64727387  0.00550676  0.62383083     0.31300
Zr67       Zr  0.40325465  0.93279167  0.38556440     2.17500
O68         O  0.36997827  0.97280273  0.41459407    -0.51000
O69         O  0.43959689  0.95570267  0.44256778    -0.74200
O70         O  0.36843237  0.91541226  0.44842526    -0.81000
O71         O  0.40721144  0.97325372  0.26498421    -0.82800
O72         O  0.37912585  0.86624177  0.46587308    -0.78400
O73         O  0.39137488  0.97911692  0.34053131    -0.90000
O74         O  0.48747753  0.94550015  0.41848200    -0.76000
O75         O  0.43800138  0.89685442  0.41713544    -0.85500
O76         O  0.44865581  0.93802252  0.34040230    -0.85200
O77         O  0.37939850  0.88391982  0.37210023    -0.71900
O78         O  0.39018183  0.92135925  0.30484400    -0.84100
Zr79       Zr  0.44798760  0.84149437  0.28459095     2.26400
Zr80       Zr  0.41431211  0.84821217  0.40618433     2.06300
Zr81       Zr  0.43612075  0.92602513  0.26050410     2.10000
Zr82       Zr  0.48319256  0.90154644  0.37113675     1.78800
O83         O  0.41230359  0.93538674  0.18472783    -0.92900
O84         O  0.50329143  0.88344114  0.44580647    -0.40700
O85         O  0.47169637  0.89011152  0.29153204    -0.77300
O86         O  0.46122671  0.85275765  0.36398206    -0.96000
O87         O  0.40177007  0.83617474  0.32657589    -0.89300
O88         O  0.41400133  0.87678712  0.24926916    -0.92100
C89         C  0.46877042  0.95869655  0.44559271     1.01600
C90         C  0.39377269  0.98825150  0.29768128     1.14500
C91         C  0.36366342  0.89064764  0.47158559     1.05300
O92         O  0.43631454  0.83939577  0.48331138    -0.94300
O93         O  0.44076113  0.79935345  0.40262534    -0.90000
O94         O  0.45780777  0.79505952  0.32744983    -0.83200
C95         C  0.45458401  0.78513296  0.36948745     1.12000
O96         O  0.31985131  0.89789699  0.30455805    -0.96300
Zr97       Zr  0.36814429  0.87205518  0.29216019     1.88900
O98         O  0.41509017  0.80888442  0.24021067    -0.72900
O99         O  0.37587600  0.80886465  0.41546385    -0.52200
O100        O  0.32821009  0.83995790  0.32465547    -0.96900
O101        O  0.34845393  0.89198885  0.21831948    -0.54100
O102        O  0.36678057  0.82602248  0.24447096    -0.73400
C103        C  0.38676978  0.80665602  0.23115443     0.98900
O104        O  0.49061752  0.80858855  0.26457637    -0.62300
O105        O  0.47452709  0.96494238  0.24712039    -0.57100
O106        O  0.47294957  0.85532604  0.21203266    -0.93700
O107        O  0.47015408  0.90622345  0.19998476    -0.92200
O108        O  0.52315019  0.93088560  0.33317412    -0.92500
O109        O  0.53121595  0.87461100  0.36348436    -0.91300
C110        C  0.47944394  0.87948095  0.18906927     1.17800
H111        H  0.45654116  0.95838473  0.34294362     0.33700
H112        H  0.47651562  0.83911086  0.37580337     0.44500
H113        H  0.41111178  0.87240274  0.21635428     0.38100
H114        H  0.35946262  0.88221624  0.38575333     0.34600
H115        H  0.52235882  0.89495956  0.45059511     0.26300
H116        H  0.37904637  0.80096248  0.44762833     0.32300
H117        H  0.31698722  0.83206698  0.29711716     0.38200
H118        H  0.51355254  0.95047746  0.32505947     0.32600
H119        H  0.46845284  0.97471011  0.21727541     0.31500
H120        H  0.42375778  0.95263389  0.17120056     0.33200
H121        H  0.35769546  0.87932612  0.19347933     0.32200
H122        H  0.52766036  0.85961011  0.33821949     0.36200
H123        H  0.50849130  0.82208087  0.26136057     0.28900
H124        H  0.37355290  0.97383239  0.44887217     0.33100
H125        H  0.30534096  0.88855106  0.28227380     0.36000
H126        H  0.47081122  0.98064923  0.27122366     0.28600
H127        H  0.48651122  0.80089442  0.23253951     0.41500
H128        H  0.45851430  0.83980525  0.47794704     0.31500
H129        H  0.48929602  0.89154217  0.46990330     0.39100
H130        H  0.35823365  0.91208584  0.21482948     0.31000
H131        H  0.35632003  0.81985350  0.41706762     0.31100
H132        H  0.34902954  0.96491715  0.41114580     0.31300
Zr133      Zr  0.69694815  0.83572738  0.89734659     2.17500
O134        O  0.72983325  0.86875252  0.85099983    -0.51000
O135        O  0.72076799  0.79983856  0.84187642    -0.74200
O136        O  0.74299187  0.85123906  0.94088289    -0.81000
O137        O  0.62570492  0.85580425  0.82440934    -0.82800
O138        O  0.74055034  0.83395166  0.01627025    -0.78400
O139        O  0.67318894  0.87211827  0.84208249    -0.90000
O140        O  0.72181574  0.75606220  0.88208284    -0.76000
O141        O  0.70627784  0.79283968  0.94685005    -0.85500
O142        O  0.66403066  0.79642342  0.86883389    -0.85200
O143        O  0.68476574  0.85103696  0.97687858    -0.71900
O144        O  0.64622157  0.85405661  0.90777354    -0.84100
Zr145      Zr  0.61026646  0.78806553  0.00517481     2.26400
Zr146      Zr  0.69302250  0.80701548  0.02550064     2.06300
Zr147      Zr  0.61356058  0.81518752  0.87881498     2.10000
Zr148      Zr  0.67312161  0.75405591  0.91916894     1.78800
O149        O  0.56553053  0.84091001  0.86483552    -0.92900
O150        O  0.70379560  0.71399557  0.95452205    -0.40700
O151        O  0.62248574  0.77196099  0.92729214    -0.77300
O152        O  0.66048725  0.76751884  0.99784658    -0.96000
O153        O  0.64265407  0.82651238  0.03510040    -0.89300
O154        O  0.60046938  0.83079216  0.95680954    -0.92100
C155        C  0.72840868  0.77178819  0.84609836     1.01600
C156        C  0.64782933  0.87453689  0.81944421     1.14500
C157        C  0.75374422  0.84824308  0.98275020     1.05300
O158        O  0.73135150  0.76826301  0.03906614    -0.94300
O159        O  0.67554302  0.77667797  0.09278805    -0.90000
O160        O  0.62607671  0.76552291  0.07804279    -0.83200
C161        C  0.65008267  0.76389448  0.10314893     1.12000
O162        O  0.65324012  0.91871919  0.96294703    -0.96300
Zr163      Zr  0.63376022  0.86908827  0.98581442     1.88900
O164        O  0.57450060  0.82154215  0.04452092    -0.72900
O165        O  0.70575257  0.83628218  0.09527061    -0.52200
O166        O  0.65540434  0.89402166  0.05451334    -0.96900
O167        O  0.59602985  0.90271675  0.95099243    -0.54100
O168        O  0.59133677  0.86990793  0.03997798    -0.73400
C169        C  0.57247150  0.84984847  0.05445499     0.98900
O170        O  0.58002783  0.75197800  0.05051918    -0.62300
O171        O  0.61130127  0.79390274  0.80000750    -0.57100
O172        O  0.57213862  0.76259576  0.95878776    -0.93700
O173        O  0.57175294  0.77934903  0.88352706    -0.92200
O174        O  0.65959699  0.73178947  0.84371593    -0.92500
O175        O  0.64835890  0.70508891  0.92916105    -0.91300
C176        C  0.56158953  0.76265395  0.91692143     1.17800
H177        H  0.66715048  0.79164310  0.83612008     0.33700
H178        H  0.66272887  0.74928318  0.01620611     0.44500
H179        H  0.57940869  0.83676027  0.95802125     0.38100
H180        H  0.69747138  0.86770211  0.98675339     0.34600
H181        H  0.72435877  0.72280931  0.95797519     0.26300
H182        H  0.68652500  0.83771221  0.11311720     0.32300
H183        H  0.63793012  0.89885966  0.07499389     0.38200
H184        H  0.67908026  0.72518388  0.82979047     0.32600
H185        H  0.60908735  0.77177452  0.80484507     0.31500
H186        H  0.56980468  0.86257318  0.87111561     0.33200
H187        H  0.57663464  0.89138590  0.95219512     0.32200
H188        H  0.63029787  0.70948488  0.94868030     0.36200
H189        H  0.55882956  0.75933785  0.04877211     0.28900
H190        H  0.74970332  0.85832283  0.84960299     0.33100
H191        H  0.64353833  0.93334450  0.98460387     0.36000
H192        H  0.59135744  0.80048084  0.78764793     0.36600
H193        H  0.58018197  0.73266042  0.03285242     0.41500
H194        H  0.74076941  0.77386560  0.06940797     0.31500
H195        H  0.69637357  0.71187094  0.98714550     0.39100
H196        H  0.60124303  0.90338438  0.91719573     0.31000
H197        H  0.71872603  0.82264211  0.11422215     0.31100
H198        H  0.73340527  0.88695875  0.87058804     0.31300
Zr199      Zr  0.80610332  0.63811805  0.63584408     2.17500
O200        O  0.76743168  0.60563495  0.67107426    -0.51000
O201        O  0.78554140  0.67481600  0.69339179    -0.74200
O202        O  0.82622554  0.60618415  0.69972573    -0.81000
O203        O  0.76086648  0.63853912  0.52116343    -0.82800
O204        O  0.87541261  0.61868128  0.71435565    -0.78400
O205        O  0.75802428  0.62418631  0.59780784    -0.90000
O206        O  0.78974378  0.72172787  0.66190986    -0.76000
O207        O  0.84058274  0.67586360  0.66236029    -0.85500
O208        O  0.79732307  0.68118603  0.58659778    -0.85200
O209        O  0.85565007  0.61599933  0.62207846    -0.71900
O210        O  0.81606180  0.62203628  0.55583675    -0.84100
Zr211      Zr  0.89294318  0.68229660  0.52698621     2.26400
Zr212      Zr  0.89001448  0.65390059  0.65191776     2.06300
Zr213      Zr  0.80826862  0.66582494  0.50770917     2.10000
Zr214      Zr  0.83257585  0.71858754  0.61192301     1.78800
O215        O  0.80018549  0.63737895  0.43549640    -0.92900
O216        O  0.85023368  0.74461074  0.68231663    -0.40700
O217        O  0.84318967  0.70413047  0.53330736    -0.77300
O218        O  0.88214596  0.69868299  0.60539264    -0.96000
O219        O  0.90137108  0.63832983  0.57301962    -0.89300
O220        O  0.85834449  0.64565862  0.49623284    -0.92100
C221        C  0.78029083  0.70358742  0.69337874     1.01600
C222        C  0.74712675  0.62610253  0.55599830     1.14500
C223        C  0.85157729  0.60245574  0.72170941     1.05300
O224        O  0.89569287  0.68245860  0.72456258    -0.94300
O225        O  0.93771184  0.68213507  0.64330362    -0.90000
O226        O  0.93596403  0.70268841  0.57011608    -0.83200
C227        C  0.94814054  0.69946203  0.61070470     1.12000
O228        O  0.83636066  0.55586797  0.55215401    -0.96300
Zr229      Zr  0.86626042  0.60199101  0.54288343     1.88900
O230        O  0.92708650  0.64819454  0.48700143    -0.72900
O231        O  0.93149207  0.61911026  0.66896615    -0.52200
O232        O  0.89513512  0.56168811  0.58055050    -0.96900
O233        O  0.85228920  0.57882371  0.46822098    -0.54100
O234        O  0.91404241  0.59932253  0.49915655    -0.73400
C235        C  0.93176122  0.61975207  0.48221502     0.98900
O236        O  0.92461986  0.71717918  0.48168964    -0.62300
O237        O  0.76462409  0.69752941  0.48891190    -0.57100
O238        O  0.87537399  0.70693086  0.45698906    -0.93700
O239        O  0.82502708  0.69921348  0.44420369    -0.92200
O240        O  0.80022564  0.75520576  0.57200883    -0.92500
O241        O  0.85800935  0.76667455  0.59647828    -0.91300
C242        C  0.85102329  0.71046180  0.43315332     1.17800
H243        H  0.77660483  0.68812683  0.58915680     0.33700
H244        H  0.89415313  0.71554972  0.61634736     0.44500
H245        H  0.86235981  0.64184394  0.46343704     0.38100
H246        H  0.85855534  0.59664618  0.63700933     0.34600
H247        H  0.83401382  0.75930633  0.69003769     0.26300
H248        H  0.94596541  0.62163454  0.64266335     0.32300
H249        H  0.90679265  0.57196250  0.60565836     0.38200
H250        H  0.78071797  0.74450394  0.56714860     0.32600
H251        H  0.77202474  0.71861785  0.49221194     0.31500
H252        H  0.77787272  0.63644465  0.43156757     0.33200
H253        H  0.86647361  0.58737850  0.44472706     0.32200
H254        H  0.86547364  0.76491315  0.56381179     0.36200
H255        H  0.92560673  0.73625745  0.49996390     0.28900
H256        H  0.76762180  0.61043431  0.70502446     0.33100
H257        H  0.83256200  0.55426593  0.58632192     0.36000
H258        H  0.76153728  0.69484842  0.45473846     0.28600
H259        H  0.94546316  0.70883538  0.48259844     0.41500
H260        H  0.90647066  0.66856980  0.74617961     0.31500
H261        H  0.84910097  0.72923500  0.70758823     0.39100
H262        H  0.83234286  0.58774854  0.46025860     0.31000
H263        H  0.94196910  0.62803420  0.69644497     0.31100
H264        H  0.77535746  0.58468647  0.66878640     0.31300
Zr265      Zr  0.10003875  0.04260392  0.88716563     2.17500
O266        O  0.12883924  0.00315392  0.92750382    -0.51000
O267        O  0.06389674  0.02000304  0.94409025    -0.74200
O268        O  0.13360380  0.06351304  0.94886983    -0.81000
O269        O  0.10029784  0.99788870  0.77063416    -0.82800
O270        O  0.11888044  0.11185470  0.96394061    -0.78400
O271        O  0.11700482  0.99639101  0.84629581    -0.90000
O272        O  0.01579897  0.02868734  0.91960961    -0.76000
O273        O  0.06026342  0.07511966  0.91304487    -0.85500
O274        O  0.05764422  0.03268646  0.83699380    -0.85200
O275        O  0.12042076  0.09305404  0.87361713    -0.71900
O276        O  0.11581620  0.05354351  0.80729037    -0.84100
Zr277      Zr  0.05277085  0.12779068  0.77746809     2.26400
Zr278      Zr  0.08094990  0.12507228  0.90387897     2.06300
Zr279      Zr  0.07245153  0.04463534  0.75803479     2.10000
Zr280      Zr  0.01840574  0.06612661  0.86079143     1.78800
O281        O  0.10310913  0.03614282  0.68812475    -0.92900
O282        O  0.98415144  0.08546962  0.92080857    -0.40700
O283        O  0.03274343  0.07769823  0.78282145    -0.77300
O284        O  0.03691482  0.11646414  0.85579544    -0.96000
O285        O  0.09597439  0.13737734  0.82516737    -0.89300
O286        O  0.09100363  0.09530659  0.74688821    -0.92100
C287        C  0.03485600  0.01669630  0.94737553     1.01600
C288        C  0.11438032  0.98511068  0.80476555     1.14500
C289        C  0.13649099  0.08895900  0.97089265     1.05300
O290        O  0.05126606  0.12709972  0.97594960    -0.94300
O291        O  0.05260117  0.17200100  0.89251988    -0.90000
O292        O  0.03801393  0.17403874  0.81585021    -0.83200
C293        C  0.03933063  0.18473487  0.85754826     1.12000
O294        O  0.18394293  0.08583322  0.81731707    -0.96300
Zr295      Zr  0.13392569  0.10456358  0.79475522     1.88900
O296        O  0.08379209  0.16207994  0.73299505    -0.72900
O297        O  0.10846119  0.17058921  0.92730705    -0.52200
O298        O  0.17084104  0.14092868  0.82469601    -0.96900
O299        O  0.15841567  0.08343439  0.72536858    -0.54100
O300        O  0.13296152  0.15092479  0.74766595    -0.73400
C301        C  0.11216817  0.16759873  0.72938779     0.98900
O302        O  0.00747938  0.15588969  0.75421734    -0.62300
O303        O  0.03627100  0.00438231  0.74006814    -0.57100
O304        O  0.03219622  0.11121739  0.70328080    -0.93700
O305        O  0.03955412  0.06060031  0.69320819    -0.92200
O306        O  0.99072070  0.02498127  0.82295359    -0.92500
O307        O  0.96946556  0.08411727  0.83235476    -0.91300
C308        C  0.02854326  0.08639580  0.68065606     1.17800
H309        H  0.05134510  0.01179394  0.83983165     0.33700
H310        H  0.02009979  0.12906962  0.86522360     0.44500
H311        H  0.09489307  0.09958283  0.71419048     0.38100
H312        H  0.13991062  0.09713208  0.88745160     0.34600
H313        H  0.96883398  0.06925644  0.92528521     0.26300
H314        H  0.10423304  0.17279940  0.96126864     0.32300
H315        H  0.15928058  0.15355688  0.84714274     0.38200
H316        H  0.97446304  0.01950634  0.84541914     0.32600
H317        H  0.04417365  0.99488154  0.71107108     0.31500
H318        H  0.10097435  0.01424793  0.68118177     0.33200
H319        H  0.14698158  0.09142720  0.69815421     0.32200
H320        H  0.97419477  0.09531376  0.80312983     0.36200
H321        H  0.99107406  0.14060270  0.75167557     0.28900
H322        H  0.12338029  0.00501921  0.96109451     0.33100
H323        H  0.19782213  0.09149936  0.79140640     0.36000
H324        H  0.03924509  0.98882241  0.76468612     0.28600
H325        H  0.01110992  0.16297184  0.72170218     0.41500
H326        H  0.03591731  0.14308118  0.97041693     0.31500
H327        H  0.99625422  0.08525339  0.95009836     0.39100
H328        H  0.15349323  0.06153487  0.72631801     0.31000
H329        H  0.13021046  0.16507126  0.92560002     0.31100
H330        H  0.15040005  0.00945299  0.92576977     0.31300
Zr331      Zr  0.90525217  0.92908588  0.15005640     2.17500
O332        O  0.87393390  0.96331196  0.10328598    -0.51000
O333        O  0.94374935  0.95333030  0.09937168    -0.74200
O334        O  0.89174720  0.97582300  0.19351223    -0.81000
O335        O  0.88404435  0.85997563  0.07219584    -0.82800
O336        O  0.90735648  0.97127967  0.26941873    -0.78400
O337        O  0.86951533  0.90776486  0.09131223    -0.90000
O338        O  0.99066566  0.94370852  0.12847841    -0.76000
O339        O  0.94686329  0.93493607  0.20306633    -0.85500
O340        O  0.94333934  0.89451700  0.12330721    -0.85200
O341        O  0.88628377  0.91630539  0.22739510    -0.71900
O342        O  0.88430886  0.87914954  0.15665589    -0.84100
Zr343      Zr  0.94525655  0.83848744  0.25822303     2.26400
Zr344      Zr  0.92885542  0.92125374  0.27985816     2.06300
Zr345      Zr  0.92191715  0.84473127  0.12939099     2.10000
Zr346      Zr  0.98458895  0.90014907  0.17709183     1.78800
O347        O  0.89017014  0.80134901  0.10940472    -0.92900
O348        O  0.01980462  0.93199490  0.22091990    -0.40700
O349        O  0.96359981  0.85073798  0.18175172    -0.77300
O350        O  0.96814248  0.88772329  0.25421990    -0.96000
O351        O  0.90678709  0.87168438  0.28579555    -0.89300
O352        O  0.90371568  0.83142181  0.20580974    -0.92100
C353        C  0.97287974  0.95654290  0.09938572     1.01600
C354        C  0.86644697  0.88297247  0.06745417     1.14500
C355        C  0.89478040  0.98591637  0.23577634     1.05300
O356        O  0.96487375  0.95866384  0.30921112    -0.94300
O357        O  0.95857070  0.90362489  0.34702002    -0.90000
O358        O  0.96660193  0.85354903  0.33365457    -0.83200
C359        C  0.96983595  0.87773092  0.35821592     1.12000
O360        O  0.81853518  0.88961009  0.20638794    -0.96300
Zr361      Zr  0.86561741  0.86579146  0.23224152     1.88900
O362        O  0.90860386  0.80477606  0.29340410    -0.72900
O363        O  0.89405263  0.92639538  0.34580981    -0.52200
O364        O  0.83841303  0.88666867  0.29918543    -0.96900
O365        O  0.83099761  0.83246235  0.18950518    -0.54100
O366        O  0.86047831  0.82072709  0.28117938    -0.73400
C367        C  0.87986562  0.80201966  0.29826439     0.98900
O368        O  0.97668070  0.79946122  0.29487925    -0.62300
O369        O  0.95001084  0.84230642  0.05571784    -0.57100
O370        O  0.97222886  0.80155739  0.21152174    -0.93700
O371        O  0.95310463  0.79946005  0.13750859    -0.92200
O372        O  0.01179384  0.88172812  0.10841168    -0.92500
O373        O  0.03162167  0.87378404  0.19548523    -0.91300
C374        C  0.97080920  0.79006850  0.17023709     1.17800
H375        H  0.94942906  0.89816195  0.09123191     0.33700
H376        H  0.98615540  0.88917298  0.27335541     0.44500
H377        H  0.89669914  0.81066275  0.20551321     0.38100
H378        H  0.87016426  0.92991759  0.23641990     0.34600
H379        H  0.03285578  0.94161393  0.19683830     0.26300
H380        H  0.90472019  0.93997295  0.36805163     0.32300
H381        H  0.84460110  0.87393861  0.32616284     0.38200
H382        H  0.00923188  0.85942410  0.10934052     0.32600
H383        H  0.96866367  0.83073022  0.06297317     0.31500
H384        H  0.89600070  0.79604875  0.07687381     0.33200
H385        H  0.84058238  0.81218533  0.19045828     0.32200
H386        H  0.02519174  0.85622894  0.21477798     0.36200
H387        H  0.99636707  0.80922175  0.30234031     0.28900
H388        H  0.88486131  0.98295116  0.10297036     0.33100
H389        H  0.80226719  0.88041572  0.22573537     0.36000
H390        H  0.93794004  0.82856003  0.03553386     0.28600
H391        H  0.96722634  0.79507667  0.32568189     0.41500
H392        H  0.95279956  0.97238888  0.32934997     0.31500
H393        H  0.00716846  0.94874944  0.23320141     0.39100
H394        H  0.83280586  0.83881690  0.15626970     0.31000
H395        H  0.87697949  0.93869789  0.33368850     0.31100
H396        H  0.85545974  0.96699972  0.12223930     0.31300
Zr397      Zr  0.19540692  0.83654400  0.63733890     2.17500
O398        O  0.23450526  0.86923998  0.67098713    -0.51000
O399        O  0.21913831  0.80001472  0.69261438    -0.74200
O400        O  0.17572796  0.86769657  0.70313693    -0.81000
O401        O  0.23561980  0.84079679  0.51689990    -0.82800
O402        O  0.12681544  0.85467212  0.71884103    -0.78400
O403        O  0.24112259  0.85308903  0.59411470    -0.90000
O404        O  0.20894404  0.75238824  0.66768873    -0.76000
O405        O  0.16255921  0.79736659  0.66463754    -0.85500
O406        O  0.20341295  0.79418020  0.58603785    -0.85200
O407        O  0.14503525  0.85782699  0.62686639    -0.71900
O408        O  0.18296067  0.85281784  0.55838763    -0.84100
Zr409      Zr  0.10675325  0.79170935  0.53137961     2.26400
Zr410      Zr  0.11262956  0.81841499  0.65773422     2.06300
Zr411      Zr  0.19010078  0.80997531  0.50799657     2.10000
Zr412      Zr  0.16953397  0.75561538  0.61197885     1.78800
O413        O  0.19476714  0.83857585  0.43519807    -0.92900
O414        O  0.14969541  0.72473413  0.67602581    -0.40700
O415        O  0.15684330  0.77080024  0.53459077    -0.77300
O416        O  0.11952455  0.77476178  0.60880879    -0.96000
O417        O  0.09919969  0.83477956  0.57994978    -0.89300
O418        O  0.13954812  0.82953303  0.49952936    -0.92100
C419        C  0.22161735  0.77088354  0.69561911     1.01600
C420        C  0.25018561  0.85311428  0.55104852     1.14500
C421        C  0.15052854  0.87109608  0.72586034     1.05300
O422        O  0.11499214  0.78760103  0.72856652    -0.94300
O423        O  0.06527418  0.78978821  0.64996410    -0.90000
O424        O  0.06290385  0.77361528  0.57413833    -0.83200
C425        C  0.05263941  0.77519041  0.61612533     1.12000
O426        O  0.15767521  0.92051480  0.56488823    -0.96300
Zr427      Zr  0.13242974  0.87236612  0.54854762     1.88900
O428        O  0.07252277  0.82531190  0.49045515    -0.72900
O429        O  0.06730637  0.84467492  0.68506150    -0.52200
O430        O  0.09789097  0.90839340  0.58509976    -0.96900
O431        O  0.15047004  0.89821913  0.47811922    -0.54100
O432        O  0.08594312  0.87425939  0.50190433    -0.73400
C433        C  0.06807138  0.85381143  0.48547465     0.98900
O434        O  0.07263141  0.75161472  0.50454066    -0.62300
O435        O  0.23395653  0.77870901  0.48917466    -0.57100
O436        O  0.12259691  0.76805237  0.45881866    -0.93700
O437        O  0.17333009  0.77395389  0.44750011    -0.92200
O438        O  0.20718359  0.72122867  0.57923868    -0.92500
O439        O  0.14748216  0.70827809  0.58397112    -0.91300
C440        C  0.14721647  0.76292205  0.43625938     1.17800
H441        H  0.22425348  0.78739644  0.58739684     0.33700
H442        H  0.10735666  0.75778753  0.61895982     0.44500
H443        H  0.13470480  0.83377386  0.46709945     0.38100
H444        H  0.14201576  0.87710229  0.64205215     0.34600
H445        H  0.16399835  0.70750594  0.67853364     0.26300
H446        H  0.06501514  0.83837081  0.71824216     0.32300
H447        H  0.09093777  0.89821745  0.61415908     0.38200
H448        H  0.21234530  0.70726218  0.60525507     0.32600
H449        H  0.22737813  0.75772204  0.49626852     0.31500
H450        H  0.21462406  0.83240792  0.42206217     0.33200
H451        H  0.13946537  0.88865029  0.45168529     0.32200
H452        H  0.13515644  0.71410728  0.55634276     0.36200
H453        H  0.06556777  0.75788187  0.47299007     0.28900
H454        H  0.23496813  0.86434938  0.70490673     0.33100
H455        H  0.14512841  0.93629753  0.54958112     0.36000
H456        H  0.23552447  0.77942305  0.45452569     0.28600
H457        H  0.08539781  0.73346609  0.49927354     0.41500
H458        H  0.10389178  0.76877728  0.72046930     0.31500
H459        H  0.15344588  0.73682526  0.70471938     0.39100
H460        H  0.17177099  0.89150242  0.47444129     0.31000
H461        H  0.07294391  0.86639247  0.68657627     0.31100
H462        H  0.22628338  0.89009910  0.66920562     0.31300
Zr463      Zr  0.30580622  0.64131574  0.90362237     2.17500
O464        O  0.26790879  0.61401389  0.85753354    -0.51000
O465        O  0.28032959  0.67899386  0.85258743    -0.74200
O466        O  0.26174325  0.62507034  0.95119515    -0.81000
O467        O  0.37205034  0.61955085  0.82216872    -0.82800
O468        O  0.26798524  0.64004525  0.02704535    -0.78400
O469        O  0.32629882  0.60312901  0.84863233    -0.90000
O470        O  0.29271393  0.72633723  0.87674928    -0.76000
O471        O  0.30099775  0.68392009  0.95458042    -0.85500
O472        O  0.33981275  0.67908534  0.87374330    -0.85200
O473        O  0.32040699  0.62350567  0.98076766    -0.71900
O474        O  0.35579996  0.62006274  0.90899510    -0.84100
Zr475      Zr  0.39874149  0.68224228  0.00576876     2.26400
Zr476      Zr  0.31582247  0.66681098  0.03108164     2.06300
Zr477      Zr  0.38931540  0.65741607  0.87813228     2.10000
Zr478      Zr  0.33578609  0.72117192  0.92610482     1.78800
O479        O  0.43137904  0.62631150  0.85071957    -0.92900
O480        O  0.30096490  0.75528978  0.96636697    -0.40700
O481        O  0.38577712  0.70043386  0.92890394    -0.77300
O482        O  0.34956717  0.70543040  0.00270781    -0.96000
O483        O  0.36549565  0.64468441  0.03640255    -0.89300
O484        O  0.40410273  0.64000318  0.95456622    -0.92100
C485        C  0.27817236  0.70816930  0.85037673     1.01600
C486        C  0.35000495  0.60045955  0.82223246     1.14500
C487        C  0.25317830  0.62651583  0.99442087     1.05300
O488        O  0.27580361  0.70302500  0.04905814    -0.94300
O489        O  0.33434320  0.69765346  0.09569759    -0.90000
O490        O  0.38461031  0.70466843  0.08091592    -0.83200
C491        C  0.36054896  0.70867900  0.10562527     1.12000
O492        O  0.34315099  0.55617247  0.96484306    -0.96300
Zr493      Zr  0.37054988  0.60251840  0.98498750     1.88900
O494        O  0.43049241  0.64672412  0.04813492    -0.72900
O495        O  0.30928418  0.63635660  0.10172350    -0.52200
O496        O  0.35135435  0.57645670  0.05436261    -0.96900
O497        O  0.40203083  0.56599479  0.94309989    -0.54100
O498        O  0.41651105  0.59828108  0.03298179    -0.73400
C499        C  0.43417576  0.61800022  0.05199995     0.98900
O500        O  0.43424457  0.72077385  0.03375194    -0.62300
O501        O  0.38950203  0.68733425  0.80614957    -0.57100
O502        O  0.44315152  0.69629791  0.96055629    -0.93700
O503        O  0.43731157  0.68384350  0.88353755    -0.92200
O504        O  0.35207464  0.74979874  0.85735531    -0.92500
O505        O  0.35993458  0.76895845  0.94753245    -0.91300
C506        C  0.45223647  0.69527360  0.91780669     1.17800
H507        H  0.33548121  0.68463001  0.84167231     0.33700
H508        H  0.34860609  0.72377508  0.02113820     0.44500
H509        H  0.42480998  0.63285016  0.95391177     0.38100
H510        H  0.30765590  0.60701788  0.99110763     0.34600
H511        H  0.29749899  0.77210962  0.94395779     0.26300
H512        H  0.33008696  0.63319524  0.11392795     0.32300
H513        H  0.36962505  0.56933406  0.07130130     0.38200
H514        H  0.33668180  0.76595840  0.85355403     0.32600
H515        H  0.39218884  0.70851696  0.81687663     0.31500
H516        H  0.43550821  0.63349960  0.81841200     0.33200
H517        H  0.42267231  0.57490284  0.94308797     0.32200
H518        H  0.38120302  0.76348311  0.95488822     0.36200
H519        H  0.42215537  0.73950694  0.03780315     0.28900
H520        H  0.24843493  0.62459894  0.86315145     0.33100
H521        H  0.35405868  0.53950212  0.98087894     0.36000
H522        H  0.40895119  0.68226715  0.79064398     0.28600
H523        H  0.44021954  0.71457949  0.06586809     0.41500
H524        H  0.26621336  0.69514630  0.07803905     0.31500
H525        H  0.28136703  0.74428071  0.96728993     0.39100
H526        H  0.39530950  0.56739933  0.90999171     0.31000
H527        H  0.29962190  0.65013164  0.12470164     0.31100
H528        H  0.26557232  0.59405322  0.87308588     0.31300
Zr529      Zr  0.19563901  0.33383853  0.40371915     2.17500
O530        O  0.23309542  0.36248740  0.35862981    -0.51000
O531        O  0.22046592  0.29598536  0.35228515    -0.74200
O532        O  0.24014899  0.34970752  0.45071605    -0.81000
O533        O  0.12837155  0.35419539  0.32124562    -0.82800
O534        O  0.23360059  0.33566052  0.52700064    -0.78400
O535        O  0.17486265  0.37001865  0.34543053    -0.90000
O536        O  0.20738934  0.24870426  0.37609632    -0.76000
O537        O  0.20032471  0.29201818  0.45668780    -0.85500
O538        O  0.16173560  0.29569970  0.37498078    -0.85200
O539        O  0.18111167  0.35263372  0.48047784    -0.71900
O540        O  0.14572462  0.35535102  0.40796578    -0.84100
Zr541      Zr  0.10253346  0.29401900  0.50572029     2.26400
Zr542      Zr  0.18498788  0.31002275  0.53283410     2.06300
Zr543      Zr  0.11225302  0.31727189  0.37836054     2.10000
Zr544      Zr  0.16591019  0.25431344  0.42857446     1.78800
O545        O  0.07071905  0.34631989  0.34448078    -0.92900
O546        O  0.20135228  0.22188095  0.47113641    -0.40700
O547        O  0.11580273  0.27479545  0.42991506    -0.77300
O548        O  0.15181608  0.27109117  0.50420682    -0.96000
O549        O  0.13528219  0.33197621  0.53651041    -0.89300
O550        O  0.09718124  0.33579018  0.45384697    -0.92100
C551        C  0.22183972  0.26678315  0.34934046     1.01600
C552        C  0.15080837  0.37262589  0.31964423     1.14500
C553        C  0.24869316  0.34853320  0.49399000     1.05300
O554        O  0.22440630  0.27663288  0.56308498    -0.94300
O555        O  0.16542901  0.27865644  0.59723470    -0.90000
O556        O  0.11556291  0.27127342  0.58034448    -0.83200
C557        C  0.13908271  0.26732242  0.60612615     1.12000
O558        O  0.15562487  0.42158246  0.46593748    -0.96300
Zr559      Zr  0.13084591  0.37346848  0.48347067     1.88900
O560        O  0.07059967  0.33027611  0.54624539    -0.72900
O561        O  0.18701178  0.34386590  0.60023466    -0.52200
O562        O  0.14740481  0.40097846  0.55309554    -0.96900
O563        O  0.09926831  0.40842838  0.43872528    -0.54100
O564        O  0.08510988  0.37849728  0.53040604    -0.73400
C565        C  0.06732581  0.35909825  0.54958368     0.98900
O566        O  0.06685169  0.25498407  0.53173521    -0.62300
O567        O  0.11264347  0.28569291  0.30822312    -0.57100
O568        O  0.05878656  0.27935593  0.46052424    -0.93700
O569        O  0.06341139  0.29278231  0.38387065    -0.92200
O570        O  0.14857332  0.22428657  0.36206072    -0.92500
O571        O  0.14122772  0.20716066  0.45199763    -0.91300
C572        C  0.04904362  0.28091464  0.41825741     1.17800
H573        H  0.16586144  0.28982106  0.34299141     0.33700
H574        H  0.15278073  0.25286756  0.52284860     0.44500
H575        H  0.07644941  0.34285776  0.45288968     0.38100
H576        H  0.19403397  0.36911539  0.49037484     0.34600
H577        H  0.20027281  0.20193586  0.45527907     0.26300
H578        H  0.20476141  0.33682267  0.61854684     0.32300
H579        H  0.13415555  0.39366546  0.57879433     0.38200
H580        H  0.12714824  0.23032340  0.35754511     0.32600
H581        H  0.09832996  0.26896464  0.31519646     0.31500
H582        H  0.06552535  0.36155960  0.36865327     0.33200
H583        H  0.07948847  0.39799489  0.43525502     0.32200
H584        H  0.12248362  0.21362610  0.46832231     0.36200
H585        H  0.07887378  0.23612242  0.53476029     0.28900
H586        H  0.25238577  0.35115191  0.36169204     0.33100
H587        H  0.17410795  0.41598886  0.44819484     0.36000
H588        H  0.10205685  0.29801800  0.28423175     0.28600
H589        H  0.06075282  0.26036498  0.56412286     0.41500
H590        H  0.23842093  0.27352841  0.53635714     0.31500
H591        H  0.22176228  0.22974718  0.46309052     0.39100
H592        H  0.10802995  0.40838785  0.40671030     0.31000
H593        H  0.19342683  0.36366796  0.58716601     0.31100
H594        H  0.23640789  0.38161812  0.37610163     0.31300
Zr595      Zr  0.30640103  0.13894999  0.13751235     2.17500
O596        O  0.26719686  0.10611328  0.17067840    -0.51000
O597        O  0.28394548  0.17626142  0.19292053    -0.74200
O598        O  0.32576229  0.10572227  0.20098649    -0.81000
O599        O  0.26565606  0.13680863  0.01751020    -0.82800
O600        O  0.37442067  0.11961948  0.21707251    -0.78400
O601        O  0.25989683  0.12474954  0.09479532    -0.90000
O602        O  0.28843824  0.22291855  0.16115542    -0.76000
O603        O  0.34016292  0.17725241  0.16533704    -0.85500
O604        O  0.29853647  0.18165438  0.08719662    -0.85200
O605        O  0.35651079  0.11758853  0.12552952    -0.71900
O606        O  0.31830145  0.12299595  0.05816104    -0.84100
Zr607      Zr  0.39537851  0.18412601  0.03166173     2.26400
Zr608      Zr  0.39002729  0.15571081  0.15650077     2.06300
Zr609      Zr  0.31169032  0.16646369  0.00906838     2.10000
Zr610      Zr  0.33258621  0.21969775  0.11397857     1.78800
O611        O  0.30760116  0.13864860  0.93553708    -0.92900
O612        O  0.34857684  0.24806055  0.18324823    -0.40700
O613        O  0.34532925  0.20512449  0.03632378    -0.77300
O614        O  0.38251293  0.20036996  0.10960730    -0.96000
O615        O  0.40302804  0.14024832  0.07829431    -0.89300
O616        O  0.36200673  0.14690331  0.99978118    -0.92100
C617        C  0.27864495  0.20509563  0.19273787     1.01600
C618        C  0.25075355  0.12521084  0.05182340     1.14500
C619        C  0.35113806  0.10241363  0.22323170     1.05300
O620        O  0.39679903  0.17970029  0.23269640    -0.94300
O621        O  0.43685479  0.18566621  0.15122585    -0.90000
O622        O  0.43796045  0.20381083  0.07647830    -0.83200
C623        C  0.44851284  0.20198637  0.11837883     1.12000
O624        O  0.34456925  0.05510866  0.06516497    -0.96300
Zr625      Zr  0.36874878  0.10346423  0.04735135     1.88900
O626        O  0.43105480  0.15007837  0.99434213    -0.72900
O627        O  0.43323839  0.12240339  0.16980328    -0.52200
O628        O  0.40168990  0.06560716  0.08298178    -0.96900
O629        O  0.35037539  0.07894725  0.97607913    -0.54100
O630        O  0.41488549  0.10153415  0.00054554    -0.73400
C631        C  0.43398394  0.12161349  0.98663424     0.98900
O632        O  0.42386868  0.22337716  0.99009740    -0.62300
O633        O  0.26773557  0.19757422  0.98996046    -0.57100
O634        O  0.37959288  0.20643703  0.95822992    -0.93700
O635        O  0.32848294  0.20199448  0.94882577    -0.92200
O636        O  0.29919760  0.25429788  0.07189422    -0.92500
O637        O  0.35773722  0.26746921  0.09545442    -0.91300
C638        C  0.35474162  0.21190464  0.93645175     1.17800
H639        H  0.27770302  0.18842630  0.08837324     0.33700
H640        H  0.39427817  0.21734463  0.12077173     0.44500
H641        H  0.36676058  0.14307479  0.96723003     0.38100
H642        H  0.35959574  0.09806790  0.13981174     0.34600
H643        H  0.32990668  0.25730163  0.19619157     0.26300
H644        H  0.42444959  0.10176610  0.17170094     0.32300
H645        H  0.41959481  0.07715569  0.09401377     0.38200
H646        H  0.29330826  0.26971987  0.09542801     0.32600
H647        H  0.27541690  0.21868490  0.98990360     0.31500
H648        H  0.29221997  0.14986504  0.91710972     0.33200
H649        H  0.35742698  0.09178424  0.94974507     0.32200
H650        H  0.37385087  0.26196563  0.07279084     0.36200
H651        H  0.42358104  0.24143370  0.01074301     0.28900
H652        H  0.26596971  0.11159223  0.20432489     0.33100
H653        H  0.32319079  0.06031799  0.07218900     0.36000
H654        H  0.26333597  0.19308129  0.95660196     0.28600
H655        H  0.44527617  0.21655456  0.98973544     0.41500
H656        H  0.41485071  0.16957870  0.24621616     0.31500
H657        H  0.35437234  0.23240789  0.20648861     0.39100
H658        H  0.32808699  0.08179466  0.97679927     0.31000
H659        H  0.44474465  0.12254898  0.13995866     0.31100
H660        H  0.27560650  0.08530368  0.17016525     0.31300
Zr661      Zr  0.60030764  0.54428519  0.38823850     2.17500
O662        O  0.63416371  0.50597536  0.42101888    -0.51000
O663        O  0.56316787  0.52157207  0.44395602    -0.74200
O664        O  0.63039727  0.56398012  0.45484662    -0.81000
O665        O  0.60314896  0.50128919  0.27012982    -0.82800
O666        O  0.61735297  0.61311997  0.46774142    -0.78400
O667        O  0.61589211  0.49763652  0.34750551    -0.90000
O668        O  0.51564751  0.53147874  0.41773780    -0.76000
O669        O  0.56135033  0.57805722  0.41271037    -0.85500
O670        O  0.55873754  0.53547569  0.33591800    -0.85200
O671        O  0.62205586  0.59426767  0.37681590    -0.71900
O672        O  0.61747943  0.55556535  0.30931389    -0.84100
Zr673      Zr  0.55806252  0.63250736  0.27728236     2.26400
Zr674      Zr  0.58278099  0.62791896  0.40445905     2.06300
Zr675      Zr  0.57503224  0.54825587  0.25774256     2.10000
Zr676      Zr  0.52023187  0.56969329  0.35926041     1.78800
O677        O  0.60462207  0.54007909  0.18666754    -0.92900
O678        O  0.48653228  0.58789427  0.42118033    -0.40700
O679        O  0.53620169  0.58267509  0.28197218    -0.77300
O680        O  0.54007706  0.61939008  0.35411292    -0.96000
O681        O  0.60051434  0.64032212  0.32695520    -0.89300
O682        O  0.59559442  0.59846624  0.24843172    -0.92100
C683        C  0.53395148  0.51914208  0.44650499     1.01600
C684        C  0.61514282  0.48737027  0.30518698     1.14500
C685        C  0.63339617  0.58943062  0.47681031     1.05300
O686        O  0.55285119  0.63048871  0.47614353    -0.94300
O687        O  0.55116607  0.67369191  0.39685444    -0.90000
O688        O  0.53603761  0.67461018  0.32050430    -0.83200
C689        C  0.53550922  0.68484976  0.36272108     1.12000
O690        O  0.68572598  0.57922420  0.31193713    -0.96300
Zr691      Zr  0.63789422  0.60566201  0.29879664     1.88900
O692        O  0.59403985  0.66580283  0.23822522    -0.72900
O693        O  0.61341657  0.67235206  0.42330687    -0.52200
O694        O  0.67437595  0.63768719  0.33988289    -0.96900
O695        O  0.66212303  0.58822282  0.22676836    -0.54100
O696        O  0.64249945  0.65213140  0.25353479    -0.73400
C697        C  0.62280072  0.66982683  0.23502495     0.98900
O698        O  0.52268082  0.66910405  0.24349402    -0.62300
O699        O  0.53955694  0.50785373  0.23750076    -0.57100
O700        O  0.53502647  0.61534118  0.20463672    -0.93700
O701        O  0.54167054  0.56477499  0.19358758    -0.92200
O702        O  0.49200723  0.53084518  0.31688162    -0.92500
O703        O  0.47206632  0.59138804  0.33424193    -0.91300
C704        C  0.53067155  0.59071457  0.18167182     1.17800
H705        H  0.55190309  0.51471307  0.33805940     0.33700
H706        H  0.52254165  0.63080900  0.36356823     0.44500
H707        H  0.60044267  0.60274717  0.21604465     0.38100
H708        H  0.64105341  0.59727904  0.39279886     0.34600
H709        H  0.49605163  0.58146519  0.45104634     0.26300
H710        H  0.63450785  0.66472310  0.42520354     0.32300
H711        H  0.66331991  0.65678900  0.34613310     0.38200
H712        H  0.48667584  0.51540109  0.34072842     0.32600
H713        H  0.54862676  0.49796519  0.20965772     0.31500
H714        H  0.60071921  0.51869937  0.17792976     0.33200
H715        H  0.65638296  0.60311241  0.20232609     0.32200
H716        H  0.47777096  0.60933157  0.31525892     0.36200
H717        H  0.53013162  0.67335956  0.21136215     0.28900
H718        H  0.62971408  0.50531466  0.45507056     0.33100
H719        H  0.70153414  0.59200893  0.29705941     0.36000
H720        H  0.54147501  0.49259822  0.26281536     0.28600
H721        H  0.50324545  0.65812120  0.23918037     0.41500
H722        H  0.56339261  0.64575323  0.49575754     0.31500
H723        H  0.48882496  0.61022929  0.42118311     0.39100
H724        H  0.65109857  0.56947939  0.21821238     0.31000
H725        H  0.61310995  0.68487409  0.39445088     0.31100
H726        H  0.65485164  0.51464951  0.41859224     0.31300
Zr727      Zr  0.40276620  0.43427264  0.65511354     2.17500
O728        O  0.37307626  0.47177285  0.61190436    -0.51000
O729        O  0.44016406  0.45947353  0.60213097    -0.74200
O730        O  0.38870814  0.47873456  0.70244387    -0.81000
O731        O  0.37869676  0.36653977  0.57817544    -0.82800
O732        O  0.40265784  0.47218341  0.77876149    -0.78400
O733        O  0.36448377  0.41413991  0.59924528    -0.90000
O734        O  0.48776385  0.45004253  0.62864954    -0.76000
O735        O  0.44465234  0.43990174  0.70752132    -0.85500
O736        O  0.44122329  0.40138502  0.62524441    -0.85200
O737        O  0.38523044  0.41900548  0.73257843    -0.71900
O738        O  0.38240264  0.38396729  0.66084374    -0.84100
Zr739      Zr  0.44654601  0.34227957  0.75664859     2.26400
Zr740      Zr  0.42823525  0.42394108  0.78415327     2.06300
Zr741      Zr  0.42033724  0.35148363  0.62933731     2.10000
Zr742      Zr  0.48293493  0.40699289  0.67840625     1.78800
O743        O  0.39291376  0.30683027  0.60210929    -0.92900
O744        O  0.51313221  0.44384585  0.72184018    -0.40700
O745        O  0.46316997  0.35677287  0.67995868    -0.77300
O746        O  0.46801579  0.39222652  0.75499277    -0.96000
O747        O  0.40794087  0.37369770  0.78825176    -0.89300
O748        O  0.40420081  0.33551937  0.70594515    -0.92100
C749        C  0.46934925  0.46286944  0.60055059     1.01600
C750        C  0.36075120  0.38943458  0.57541273     1.14500
C751        C  0.39022020  0.48733493  0.74554196     1.05300
O752        O  0.45931611  0.46568552  0.81293660    -0.94300
O753        O  0.46016792  0.40545951  0.84852893    -0.90000
O754        O  0.46639067  0.35528508  0.83366021    -0.83200
C755        C  0.47048969  0.37900831  0.85897763     1.12000
O756        O  0.31629367  0.38954467  0.71943469    -0.96300
Zr757      Zr  0.36597299  0.36795437  0.73673853     1.88900
O758        O  0.41258069  0.30752471  0.79696130    -0.72900
O759        O  0.39514585  0.42341808  0.85257752    -0.52200
O760        O  0.33826275  0.38517044  0.80572653    -0.96900
O761        O  0.33429672  0.33236465  0.69301576    -0.54100
O762        O  0.36412717  0.32384032  0.78801419    -0.73400
C763        C  0.38391692  0.30527315  0.80427276     0.98900
O764        O  0.48947060  0.31107900  0.78118400    -0.62300
O765        O  0.44789000  0.35390540  0.55517352    -0.57100
O766        O  0.46380792  0.30031934  0.70956693    -0.93700
O767        O  0.45074321  0.30585012  0.63274157    -0.92200
O768        O  0.51422914  0.39164660  0.61212512    -0.92500
O769        O  0.53010917  0.38232260  0.70108622    -0.91300
C770        C  0.46349502  0.29167619  0.66663474     1.17800
H771        H  0.44676451  0.40571799  0.59317742     0.33700
H772        H  0.48614873  0.39352014  0.77384783     0.44500
H773        H  0.39775085  0.31457933  0.70524548     0.38100
H774        H  0.36864994  0.43168360  0.74277855     0.34600
H775        H  0.53116156  0.44756289  0.70188837     0.26300
H776        H  0.40564088  0.43639130  0.87585440     0.32300
H777        H  0.35084092  0.37877349  0.83276518     0.38200
H778        H  0.49991373  0.38215222  0.58973893     0.32600
H779        H  0.46261545  0.33699375  0.55639677     0.31500
H780        H  0.39917959  0.30436940  0.56895678     0.33200
H781        H  0.34208898  0.31197158  0.70105230     0.32200
H782        H  0.52366869  0.36471077  0.72024052     0.36200
H783        H  0.50605631  0.32537239  0.78912695     0.28900
H784        H  0.38455845  0.49103850  0.61428663     0.33100
H785        H  0.30131508  0.37484757  0.73194571     0.36000
H786        H  0.43291422  0.34766163  0.53111822     0.28600
H787        H  0.48344582  0.30168304  0.81136638     0.41500
H788        H  0.48048663  0.45836570  0.81038532     0.31500
H789        H  0.50145293  0.46298240  0.72021423     0.39100
H790        H  0.34014926  0.33534856  0.65977593     0.31000
H791        H  0.37707830  0.43526574  0.84312553     0.31100
H792        H  0.35439193  0.47507151  0.63053607     0.31300
Zr793      Zr  0.80779239  0.13797455  0.39860708     2.17500
O794        O  0.77267012  0.11004129  0.34837005    -0.51000
O795        O  0.78409622  0.17692066  0.34652765    -0.74200
O796        O  0.76136624  0.12156599  0.44080054    -0.81000
O797        O  0.87979482  0.11561378  0.32789263    -0.82800
O798        O  0.76431079  0.13678341  0.51708569    -0.78400
O799        O  0.83099745  0.10163753  0.34199613    -0.90000
O800        O  0.79390844  0.22385024  0.37528616    -0.76000
O801        O  0.80025177  0.17860844  0.45284712    -0.85500
O802        O  0.84236937  0.17683805  0.37453562    -0.85200
O803        O  0.81971047  0.11866404  0.47644295    -0.71900
O804        O  0.85781009  0.11760479  0.40854097    -0.84100
Zr805      Zr  0.89614784  0.17910248  0.51190032     2.26400
Zr806      Zr  0.81312733  0.16030954  0.52997662     2.06300
Zr807      Zr  0.89223642  0.15583182  0.38291317     2.10000
Zr808      Zr  0.83455323  0.21737279  0.42902503     1.78800
O809        O  0.93868492  0.12827706  0.36454743    -0.92900
O810        O  0.79664437  0.24912836  0.46741861    -0.40700
O811        O  0.88431347  0.19724759  0.43518719    -0.77300
O812        O  0.84623937  0.20059678  0.50606318    -0.96000
O813        O  0.86314111  0.13998937  0.53834294    -0.89300
O814        O  0.90486220  0.13780546  0.45974259    -0.92100
C815        C  0.78118103  0.20614511  0.34608112     1.01600
C816        C  0.85686774  0.09815066  0.32096293     1.14500
C817        C  0.75069867  0.12375429  0.48285413     1.05300
O818        O  0.77085298  0.18963614  0.56086893    -0.94300
O819        O  0.82861290  0.19220553  0.59655928    -0.90000
O820        O  0.87919780  0.20014067  0.58655304    -0.83200
C821        C  0.85424651  0.20377939  0.60910222     1.12000
O822        O  0.84598676  0.05020999  0.47248303    -0.96300
Zr823      Zr  0.87045409  0.09922596  0.48494550     1.88900
O824        O  0.93108719  0.14328963  0.54717344    -0.72900
O825        O  0.81094533  0.12250174  0.59238702    -0.52200
O826        O  0.85448363  0.07481793  0.55763411    -0.96900
O827        O  0.90099758  0.06456946  0.43796910    -0.54100
O828        O  0.91641918  0.09504722  0.53170399    -0.73400
C829        C  0.93455708  0.11448254  0.55006504     0.98900
O830        O  0.93309566  0.21259555  0.54948536    -0.62300
O831        O  0.89533359  0.18268436  0.30824078    -0.57100
O832        O  0.93271748  0.20712648  0.46557319    -0.93700
O833        O  0.93553139  0.18957115  0.39096837    -0.92200
O834        O  0.85524709  0.24683693  0.36416475    -0.92500
O835        O  0.85657534  0.26512232  0.45526981    -0.91300
C836        C  0.94420216  0.20718486  0.42418676     1.17800
H837        H  0.83939709  0.18319182  0.34243847     0.33700
H838        H  0.84420508  0.21863537  0.52490509     0.44500
H839        H  0.92574934  0.13118729  0.45979079     0.38100
H840        H  0.80650826  0.10199890  0.48461432     0.34600
H841        H  0.77680944  0.23991908  0.45933233     0.26300
H842        H  0.80345765  0.13367361  0.62018641     0.32300
H843        H  0.87020500  0.05936448  0.56421445     0.38200
H844        H  0.87623026  0.23922166  0.36027652     0.32600
H845        H  0.91675155  0.18041435  0.29832649     0.31500
H846        H  0.93332672  0.10656574  0.36765400     0.33200
H847        H  0.92165350  0.07343671  0.43813809     0.32200
H848        H  0.87836387  0.26057577  0.46009144     0.36200
H849        H  0.92242962  0.23199849  0.55525757     0.28900
H850        H  0.75309602  0.12096961  0.35048458     0.33100
H851        H  0.85987511  0.03493195  0.48615918     0.36000
H852        H  0.88373025  0.17005160  0.28579095     0.28600
H853        H  0.93695916  0.20396100  0.58101778     0.41500
H854        H  0.76472863  0.17885064  0.58986802     0.31500
H855        H  0.79897044  0.24505928  0.50139622     0.39100
H856        H  0.89375306  0.06735157  0.40535036     0.31000
H857        H  0.79403017  0.10878657  0.58378100     0.31100
H858        H  0.76908313  0.09043305  0.36442055     0.31300
Zr859      Zr  0.69644532  0.33874379  0.13848829     2.17500
O860        O  0.73548097  0.37305064  0.16806905    -0.51000
O861        O  0.71921074  0.30239381  0.19554149    -0.74200
O862        O  0.67708685  0.37104534  0.20333438    -0.81000
O863        O  0.73759606  0.33853486  0.01881127    -0.82800
O864        O  0.62911180  0.35577396  0.22031659    -0.78400
O865        O  0.74307611  0.35251170  0.09531666    -0.90000
O866        O  0.71607500  0.25569674  0.16324932    -0.76000
O867        O  0.66357232  0.30021410  0.16763219    -0.85500
O868        O  0.70447229  0.29547080  0.08954459    -0.85200
O869        O  0.64596131  0.35932260  0.12721696    -0.71900
O870        O  0.68329617  0.35357208  0.05881991    -0.84100
Zr871      Zr  0.60702177  0.29090261  0.03537520     2.26400
Zr872      Zr  0.61342816  0.32068973  0.15928669     2.06300
Zr873      Zr  0.69068103  0.30947452  0.01117395     2.10000
Zr874      Zr  0.67100711  0.25725471  0.11765443     1.78800
O875        O  0.70052367  0.33573125  0.93749658    -0.92900
O876        O  0.65750738  0.23081504  0.18989043    -0.40700
O877        O  0.65744978  0.27041638  0.03938833    -0.77300
O878        O  0.62071134  0.27596005  0.11317819    -0.96000
O879        O  0.59916979  0.33495961  0.08124870    -0.89300
O880        O  0.63991724  0.32826354  0.00250955    -0.92100
C881        C  0.72535698  0.27371659  0.19498344     1.01600
C882        C  0.75252454  0.35092505  0.05254293     1.14500
C883        C  0.65204049  0.37328621  0.22683740     1.05300
O884        O  0.60926475  0.29270049  0.23262848    -0.94300
O885        O  0.56616867  0.29202458  0.15498021    -0.90000
O886        O  0.56258625  0.27512672  0.07958554    -0.83200
C887        C  0.55280823  0.27742268  0.12188020     1.12000
O888        O  0.65696953  0.42105938  0.06013581    -0.96300
Zr889      Zr  0.63223661  0.37211264  0.04875027     1.88900
O890        O  0.57061055  0.32321517  0.99597738    -0.72900
O891        O  0.57063268  0.35412676  0.17514755    -0.52200
O892        O  0.59955752  0.40813284  0.08923735    -0.96900
O893        O  0.64502294  0.39530753  0.97343528    -0.54100
O894        O  0.58439914  0.37225852  0.00538187    -0.73400
C895        C  0.56623907  0.35169501  0.99004850     0.98900
O896        O  0.57847141  0.24581030  0.01221741    -0.62300
O897        O  0.73095246  0.27319882  0.99430477    -0.57100
O898        O  0.62094569  0.27184644  0.95892717    -0.93700
O899        O  0.67174560  0.27749684  0.94771184    -0.92200
O900        O  0.70456252  0.22258419  0.07606853    -0.92500
O901        O  0.64564892  0.20858046  0.10707347    -0.91300
C902        C  0.64543657  0.26752578  0.93561629     1.17800
H903        H  0.72538603  0.28903612  0.09081234     0.33700
H904        H  0.60831464  0.25938557  0.12433256     0.44500
H905        H  0.63497026  0.33182265  0.96990948     0.38100
H906        H  0.64294769  0.37835108  0.14180733     0.34600
H907        H  0.67343921  0.21521614  0.19401201     0.26300
H908        H  0.56604022  0.35114665  0.20885543     0.32300
H909        H  0.59454677  0.42365249  0.06533617     0.38200
H910        H  0.69299978  0.21603411  0.04803626     0.32600
H911        H  0.73774518  0.27844071  0.96217878     0.31500
H912        H  0.68411272  0.35092207  0.93476238     0.33200
H913        H  0.63480242  0.41528982  0.97385115     0.32200
H914        H  0.63606995  0.20994643  0.07569837     0.36200
H915        H  0.56789979  0.25129720  0.98272955     0.28900
H916        H  0.73605736  0.36980489  0.20245122     0.33100
H917        H  0.67751959  0.41860069  0.04659145     0.36000
H918        H  0.74819030  0.27912892  0.01463389     0.28600
H919        H  0.59370209  0.23040279  0.00311959     0.41500
H920        H  0.59441092  0.30431376  0.25147635     0.31500
H921        H  0.66138665  0.24562896  0.21530208     0.39100
H922        H  0.63365293  0.38361103  0.94955105     0.31000
H923        H  0.57909154  0.37490301  0.17319084     0.31100
H924        H  0.72710031  0.39370620  0.16390922     0.31300
Zr925      Zr  0.09916543  0.53956772  0.15282085     2.17500
O926        O  0.12793334  0.50292044  0.10659702    -0.51000
O927        O  0.06214057  0.51536159  0.09854628    -0.74200
O928        O  0.11287527  0.49410011  0.19810393    -0.81000
O929        O  0.12392978  0.60670049  0.07499047    -0.82800
O930        O  0.09716374  0.49982844  0.27366818    -0.78400
O931        O  0.13821428  0.55964094  0.09884698    -0.90000
O932        O  0.01460324  0.52483180  0.12500203    -0.76000
O933        O  0.05579280  0.53433756  0.20248612    -0.85500
O934        O  0.06241735  0.57396578  0.12187915    -0.85200
O935        O  0.11626980  0.55334480  0.23128897    -0.71900
O936        O  0.12060858  0.58936668  0.16040560    -0.84100
Zr937      Zr  0.05694902  0.63138232  0.25465745     2.26400
Zr938      Zr  0.07201417  0.54847774  0.28009973     2.06300
Zr939      Zr  0.08431441  0.62333347  0.12822635     2.10000
Zr940      Zr  0.01940619  0.56933975  0.17221776     1.78800
O941        O  0.11623915  0.66584759  0.10487025    -0.92900
O942        O  0.98056597  0.54006237  0.21300185    -0.40700
O943        O  0.04056892  0.61890118  0.17699574    -0.77300
O944        O  0.03390917  0.58209285  0.25016061    -0.96000
O945        O  0.09391738  0.59807025  0.28665926    -0.89300
O946        O  0.10015669  0.63775150  0.20565203    -0.92100
C947        C  0.03300234  0.51198413  0.09680291     1.01600
C948        C  0.14187813  0.58381281  0.07381977     1.14500
C949        C  0.11035193  0.48497089  0.24082426     1.05300
O950        O  0.03691495  0.50850262  0.30333257    -0.94300
O951        O  0.04067609  0.56783897  0.34440226    -0.90000
O952        O  0.03479238  0.61810577  0.32974375    -0.83200
C953        C  0.03012858  0.59425260  0.35449210     1.12000
O954        O  0.18384769  0.57801880  0.21627748    -0.96300
Zr955      Zr  0.13690294  0.60395786  0.23713577     1.88900
O956        O  0.09078206  0.66411798  0.29872121    -0.72900
O957        O  0.10176267  0.54248305  0.35162648    -0.52200
O958        O  0.16375279  0.58899706  0.30820214    -0.96900
O959        O  0.17250060  0.63641303  0.19482558    -0.54100
O960        O  0.13938264  0.64905394  0.28752960    -0.73400
C961        C  0.11945360  0.66707784  0.30511207     0.98900
O962        O  0.01432316  0.66356059  0.27718058    -0.62300
O963        O  0.05734083  0.62406968  0.05341184    -0.57100
O964        O  0.04339327  0.67595445  0.21023923    -0.93700
O965        O  0.05535482  0.66986554  0.13306806    -0.92200
O966        O  0.99498395  0.58382973  0.09893612    -0.92500
O967        O  0.97355485  0.59929214  0.18321911    -0.91300
C968        C  0.04367115  0.68460568  0.16730892     1.17800
H969        H  0.05741657  0.56996726  0.08946900     0.33700
H970        H  0.01547549  0.58110548  0.26837438     0.44500
H971        H  0.10728135  0.65849322  0.20583854     0.38100
H972        H  0.13234634  0.54014392  0.24173981     0.34600
H973        H  0.96581862  0.53440120  0.18826270     0.26300
H974        H  0.09360482  0.52387721  0.36649533     0.32300
H975        H  0.14842899  0.59041852  0.33350880     0.38200
H976        H  0.00172352  0.60495499  0.09335133     0.32600
H977        H  0.05547903  0.64580564  0.04522355     0.31500
H978        H  0.10806316  0.67232340  0.07408604     0.33200
H979        H  0.17733917  0.65322236  0.21659591     0.32200
H980        H  0.97626938  0.60917984  0.21413120     0.36200
H981        H  0.99697928  0.64968333  0.28264893     0.28900
H982        H  0.11639389  0.48366600  0.10847327     0.33100
H983        H  0.20024126  0.58905899  0.23285618     0.36000
H984        H  0.07190472  0.61590311  0.03020015     0.28600
H985        H  0.01945360  0.67196499  0.30842561     0.41500
H986        H  0.03051350  0.49891162  0.27352572     0.31500
H987        H  0.99065107  0.52076879  0.22138803     0.39100
H988        H  0.16033216  0.64592461  0.16961125     0.31000
H989        H  0.12230121  0.53670967  0.34075661     0.31100
H990        H  0.14685807  0.49912750  0.12442513     0.31300
Zr991      Zr  0.90232009  0.43099979  0.88360868     2.17500
O992        O  0.87347817  0.47084095  0.92277386    -0.51000
O993        O  0.94089765  0.45170508  0.93925444    -0.74200
O994        O  0.87071915  0.41093488  0.94855476    -0.81000
O995        O  0.89618858  0.47317001  0.76481244    -0.82800
O996        O  0.88372528  0.36180819  0.96201586    -0.78400
O997        O  0.88663028  0.47804415  0.84303721    -0.90000
O998        O  0.98831560  0.44025488  0.91416828    -0.76000
O999        O  0.94152512  0.39697568  0.90635875    -0.85500
O1000       O  0.94304766  0.43961167  0.82972984    -0.85200
O1001       O  0.88005944  0.38116691  0.87170547    -0.71900
O1002       O  0.88335638  0.41983900  0.80539843    -0.84100
Zr1003     Zr  0.94261034  0.34332885  0.77108051     2.26400
Zr1004     Zr  0.91919488  0.34743500  0.89897027     2.06300
Zr1005     Zr  0.92499139  0.42725909  0.75247868     2.10000
Zr1006     Zr  0.98198296  0.40525019  0.85159102     1.78800
O1007       O  0.89405742  0.43450408  0.68245271    -0.92900
O1008       O  0.01751066  0.38230279  0.90666466    -0.40700
O1009       O  0.96411780  0.39310292  0.77537913    -0.77300
O1010       O  0.96201934  0.35533724  0.84783251    -0.96000
O1011       O  0.90073898  0.33538983  0.82177478    -0.89300
O1012       O  0.90448507  0.37706771  0.74303463    -0.92100
C1013       C  0.97017089  0.45308031  0.94263190     1.01600
C1014       C  0.88572929  0.48769031  0.80027182     1.14500
C1015       C  0.86732437  0.38543000  0.97038499     1.05300
O1016       O  0.94824643  0.34539718  0.97160146    -0.94300
O1017       O  0.94875117  0.30060140  0.88967675    -0.90000
O1018       O  0.96418610  0.30097630  0.81358625    -0.83200
C1019       C  0.96392202  0.28961799  0.85501364     1.12000
O1020       O  0.81510220  0.39337384  0.81729514    -0.96300
Zr1021     Zr  0.86284271  0.36956828  0.79453960     1.88900
O1022       O  0.90680725  0.30813876  0.73622349    -0.72900
O1023       O  0.88968862  0.30195028  0.91601969    -0.52200
O1024       O  0.82801133  0.33570279  0.83550347    -0.96900
O1025       O  0.83564814  0.38894459  0.72629051    -0.54100
O1026       O  0.85833935  0.32334506  0.74734470    -0.73400
C1027       C  0.87811410  0.30448586  0.73166377     0.98900
O1028       O  0.97471143  0.31122293  0.72198083    -0.62300
O1029       O  0.95729194  0.47059746  0.73412463    -0.57100
O1030       O  0.96798898  0.36213472  0.70153542    -0.93700
O1031       O  0.95961313  0.41237423  0.68946663    -0.92200
O1032       O  0.00984183  0.44769687  0.81762031    -0.92500
O1033       O  0.02849820  0.38715110  0.81479945    -0.91300
C1034       C  0.97188918  0.38689936  0.67865912     1.17800
H1035       H  0.94997385  0.46036458  0.83137659     0.33700
H1036       H  0.97943679  0.34362597  0.85715296     0.44500
H1037       H  0.89935054  0.37281672  0.71073262     0.38100
H1038       H  0.86098288  0.37798027  0.88731454     0.34600
H1039       H  0.03220034  0.39858189  0.91434954     0.26300
H1040       H  0.89853011  0.29384948  0.94541406     0.32300
H1041       H  0.84126624  0.32075233  0.85130417     0.38200
H1042       H  0.02867437  0.44915546  0.83647628     0.32600
H1043       H  0.97779826  0.46210754  0.72885215     0.31500
H1044       H  0.90873586  0.43856764  0.65690197     0.33200
H1045       H  0.84446359  0.37824893  0.69898446     0.32200
H1046       H  0.02503987  0.36521430  0.80960685     0.36200
H1047       H  0.99501416  0.31138138  0.73691670     0.28900
H1048       H  0.88062699  0.47076156  0.95573002     0.33100
H1049       H  0.79910787  0.38291367  0.79896632     0.36000
H1050       H  0.95047429  0.47742064  0.70273356     0.28600
H1051       H  0.96713120  0.29022767  0.72599460     0.41500
H1052       H  0.96761601  0.33554324  0.96286981     0.31500
H1053       H  0.00561395  0.37942273  0.93580979     0.39100
H1054       H  0.84264587  0.41018228  0.72301545     0.31000
H1055       H  0.86932822  0.30930728  0.92523159     0.31100
H1056       H  0.85223566  0.46353761  0.92422438     0.31300
C1057       C  0.97396842  0.46721584  0.02817747     0.23900
C1058       C  0.98511619  0.46937724  0.98213892    -0.24200
C1059       C  0.01329560  0.48399151  0.97471235     0.18800
C1060       C  0.02995932  0.49596896  0.01232964     0.23800
C1061       C  0.01863610  0.49418646  0.05834096    -0.24200
C1062       C  0.99045789  0.47956371  0.06578994     0.18700
F1063       F  0.97881968  0.47718648  0.10976991    -0.14100
F1064       F  0.94754587  0.45240358  0.03703277    -0.16500
F1065       F  0.05642915  0.51068434  0.00330170    -0.16500
F1066       F  0.02445237  0.48734813  0.93056442    -0.14100
C1067       C  0.78477957  0.38872486  0.00955260     0.23900
C1068       C  0.78276572  0.36396156  0.04039276    -0.24200
C1069       C  0.80973389  0.34945827  0.05428166     0.18800
C1070       C  0.83784478  0.35774507  0.03427112     0.23800
C1071       C  0.83971138  0.38137196  0.00083747    -0.24200
C1072       C  0.81284117  0.39761434  0.99050678     0.18700
F1073       F  0.81307813  0.42064974  0.95888879    -0.14100
F1074       F  0.75923621  0.40369161  0.99640519    -0.16500
F1075       F  0.86302940  0.34181693  0.04624982    -0.16500
F1076       F  0.80859754  0.32599147  0.08508408    -0.14100
C1077       C  0.83596280  0.25098269  0.64878290     0.23900
C1078       C  0.85538016  0.22563834  0.64862688    -0.24200
C1079       C  0.87994561  0.22507214  0.68006092     0.18800
C1080       C  0.88615967  0.25005520  0.70882808     0.23800
C1081       C  0.86809341  0.27645862  0.70660920    -0.24200
C1082       C  0.84222402  0.27616785  0.67753061     0.18700
F1083       F  0.82436910  0.30111720  0.67401982    -0.14100
F1084       F  0.81258035  0.25258398  0.61782902    -0.16500
F1085       F  0.91055565  0.24870889  0.73793434    -0.16500
F1086       F  0.89879055  0.20073558  0.68143469    -0.14100
C1087       C  0.73728311  0.26708754  0.28081276     0.23900
C1088       C  0.74225677  0.25881842  0.23384384    -0.24200
C1089       C  0.75898478  0.23214835  0.22452858     0.18800
C1090       C  0.76963998  0.21377296  0.26105486     0.23800
C1091       C  0.76441921  0.22180140  0.30793957    -0.24200
C1092       C  0.74833133  0.24885108  0.31744030     0.18700
F1093       F  0.74327734  0.25764466  0.36244321    -0.14100
F1094       F  0.72080697  0.29217133  0.29136537    -0.16500
F1095       F  0.78647062  0.18893319  0.25050136    -0.16500
F1096       F  0.76522240  0.22387051  0.17965224    -0.14100
C1097       C  0.49175718  0.34668721  0.92294888     0.23900
C1098       C  0.49045802  0.37509038  0.90057141    -0.24200
C1099       C  0.51185005  0.39740705  0.91317129     0.18800
C1100       C  0.53589708  0.39033993  0.94368180     0.23800
C1101       C  0.53868806  0.36095082  0.96294183    -0.24200
C1102       C  0.51534701  0.33974476  0.95388488     0.18700
F1103       F  0.51560242  0.31176884  0.97385086    -0.14100
F1104       F  0.47061800  0.32505755  0.91354191    -0.16500
F1105       F  0.55732788  0.41182486  0.95203935    -0.16500
F1106       F  0.51086758  0.42540413  0.89339621    -0.14100
C1107       C  0.61051961  0.43099311  0.30249495     0.23900
C1108       C  0.62824406  0.45702483  0.29555524    -0.24200
C1109       C  0.65653201  0.45410860  0.27322992     0.18800
C1110       C  0.66603321  0.42596992  0.25526092     0.23800
C1111       C  0.64700429  0.40019655  0.25822886    -0.24200
C1112       C  0.61962376  0.40295268  0.28404521     0.18700
F1113       F  0.60034155  0.37907414  0.28868117    -0.14100
F1114       F  0.58313969  0.43318174  0.32410640    -0.16500
F1115       F  0.69273280  0.42474630  0.23158338    -0.16500
F1116       F  0.67424332  0.47893421  0.26640087    -0.14100
C1117       C  0.49098897  0.48792193  0.47812001     0.23900
C1118       C  0.51904626  0.50272441  0.48585056    -0.24200
C1119       C  0.52927949  0.50625252  0.53220487     0.18800
C1120       C  0.51194415  0.49516709  0.56982858     0.23800
C1121       C  0.48401205  0.48015708  0.56197410    -0.24200
C1122       C  0.47372708  0.47680307  0.51566872     0.18700
F1123       F  0.44758115  0.46156578  0.50648942    -0.14100
F1124       F  0.48019444  0.48414371  0.43384708    -0.16500
F1125       F  0.52239428  0.49930809  0.61422498    -0.16500
F1126       F  0.55531920  0.52167710  0.54131582    -0.14100
C1127       C  0.50100253  0.21211025  0.14958234     0.23900
C1128       C  0.47392620  0.22254132  0.12924253    -0.24200
C1129       C  0.47183169  0.25298840  0.11467960     0.18800
C1130       C  0.49721576  0.27185738  0.11600213     0.23800
C1131       C  0.52491425  0.26073893  0.13257314    -0.24200
C1132       C  0.52653304  0.23116644  0.15096994     0.18700
F1133       F  0.55337992  0.22010390  0.16690845    -0.14100
F1134       F  0.50337614  0.18301851  0.16472422    -0.16500
F1135       F  0.49524911  0.30046164  0.09859680    -0.16500
F1136       F  0.44532693  0.26413289  0.09752213    -0.14100
C1137       C  0.38923857  0.25188869  0.83334406     0.23900
C1138       C  0.37325740  0.27953800  0.83356067    -0.24200
C1139       C  0.34792309  0.28259770  0.86345067     0.18800
C1140       C  0.33998330  0.25919077  0.89443368     0.23800
C1141       C  0.35729005  0.23251554  0.89607943    -0.24200
C1142       C  0.38121362  0.22859890  0.86415313     0.18700
F1143       F  0.39751988  0.20247259  0.86404492    -0.14100
F1144       F  0.41307234  0.24754324  0.80392048    -0.16500
F1145       F  0.31701017  0.26359395  0.92546514    -0.16500
F1146       F  0.33217556  0.30900642  0.86517529    -0.14100
C1147       C  0.97075024  0.25524839  0.44436818     0.23900
C1148       C  0.96830467  0.22965616  0.41499159    -0.24200
C1149       C  0.99002465  0.22532424  0.37927639     0.18800
C1150       C  0.01544407  0.24433929  0.37669179     0.23800
C1151       C  0.01929871  0.26744623  0.40998919    -0.24200
C1152       C  0.99617298  0.27369832  0.44210375     0.18700
F1153       F  0.99920340  0.29665046  0.47346092    -0.14100
F1154       F  0.94919319  0.26184999  0.47684886    -0.16500
F1155       F  0.03754345  0.23838756  0.34479652    -0.16500
F1156       F  0.98793828  0.20151515  0.34926792    -0.14100
C1157       C  0.30447185  0.39597821  0.56367252     0.23900
C1158       C  0.33255805  0.38502105  0.54716829    -0.24200
C1159       C  0.33254242  0.36505494  0.50841447     0.18800
C1160       C  0.30518249  0.35471135  0.48881337     0.23800
C1161       C  0.27731466  0.36374383  0.50793336    -0.24200
C1162       C  0.27715456  0.38528587  0.54437597     0.18700
F1163       F  0.25040352  0.39512350  0.56249582    -0.14100
F1164       F  0.30326323  0.41495868  0.60114015    -0.16500
F1165       F  0.30594517  0.33406302  0.45352495    -0.16500
F1166       F  0.35909218  0.35426879  0.49100535    -0.14100
C1167       C  0.25281364  0.25066559  0.22815649     0.23900
C1168       C  0.26218677  0.21999573  0.23216215    -0.24200
C1169       C  0.25921172  0.20558647  0.27587728     0.18800
C1170       C  0.24770602  0.22137292  0.31452736     0.23800
C1171       C  0.23875665  0.25205951  0.31057127    -0.24200
C1172       C  0.24152457  0.26646830  0.26689766     0.18700
F1173       F  0.23207726  0.29552864  0.26094846    -0.14100
F1174       F  0.25428969  0.26562644  0.18652157    -0.16500
F1175       F  0.24529488  0.20641388  0.35604964    -0.16500
F1176       F  0.26807349  0.17636879  0.28178759    -0.14100
C1177       C  0.99088954  0.35945677  0.60924710     0.23900
C1178       C  0.99290222  0.38492818  0.63849283    -0.24200
C1179       C  0.01820004  0.40432044  0.63446339     0.18800
C1180       C  0.04204584  0.39701499  0.60362812     0.23800
C1181       C  0.04094094  0.37000734  0.57713364    -0.24200
C1182       C  0.01461556  0.35196475  0.57927509     0.18700
F1183       F  0.01217433  0.32624088  0.55349752    -0.14100
F1184       F  0.96643419  0.34072153  0.61166136    -0.16500
F1185       F  0.06704735  0.41505805  0.60241228    -0.16500
F1186       F  0.02104617  0.42876146  0.66310839    -0.14100
C1187       C  0.11495011  0.42847297  0.23498952     0.23900
C1188       C  0.12464630  0.45604766  0.25440856    -0.24200
C1189       C  0.14621890  0.45580261  0.29070833     0.18800
C1190       C  0.15712404  0.42842576  0.30874192     0.23800
C1191       C  0.14612850  0.40059130  0.29151592    -0.24200
C1192       C  0.12530437  0.40092439  0.25369962     0.18700
F1193       F  0.11350620  0.37464384  0.23673968    -0.14100
F1194       F  0.09364040  0.42819357  0.20054080    -0.16500
F1195       F  0.17614176  0.42931098  0.34623071    -0.16500
F1196       F  0.15573805  0.48223317  0.31025370    -0.14100
C1197       C  0.19743859  0.61623281  0.98590062     0.23900
C1198       C  0.22506857  0.61066151  0.00879395    -0.24200
C1199       C  0.22535390  0.59164545  0.04850942     0.18800
C1200       C  0.19824993  0.57990120  0.06670484     0.23800
C1201       C  0.17022693  0.58777913  0.04639008    -0.24200
C1202       C  0.17018446  0.60518625  0.00484350     0.18700
F1203       F  0.14356446  0.61285097  0.98399408    -0.14100
F1204       F  0.19657441  0.63442135  0.94747588    -0.16500
F1205       F  0.19929265  0.56318288  0.10672447    -0.16500
F1206       F  0.25186579  0.58543608  0.07088773    -0.14100
C1207       C  0.46133938  0.58007218  0.10454297     0.23900
C1208       C  0.46105873  0.60778288  0.07975002    -0.24200
C1209       C  0.48668261  0.62689686  0.08318522     0.18800
C1210       C  0.51066861  0.61977538  0.11327034     0.23800
C1211       C  0.50997755  0.59324277  0.14064536    -0.24200
C1212       C  0.48584777  0.57267411  0.13419990     0.18700
F1213       F  0.48479198  0.54656092  0.15939528    -0.14100
F1214       F  0.43700453  0.56118775  0.10287514    -0.16500
F1215       F  0.53418910  0.63959134  0.11706588    -0.16500
F1216       F  0.48826327  0.65315601  0.05834874    -0.14100
C1217       C  0.38577393  0.54365236  0.73911750     0.23900
C1218       C  0.37590824  0.51624337  0.75879767    -0.24200
C1219       C  0.35395117  0.51669227  0.79449581     0.18800
C1220       C  0.34305832  0.54425339  0.81203853     0.23800
C1221       C  0.35459034  0.57201511  0.79493537    -0.24200
C1222       C  0.37536844  0.57131762  0.75714303     0.18700
F1223       F  0.38687625  0.59743397  0.73918396    -0.14100
F1224       F  0.40724725  0.54366586  0.70493129    -0.16500
F1225       F  0.32314854  0.54356639  0.84839414    -0.16500
F1226       F  0.34390473  0.49029788  0.81364068    -0.14100
C1227       C  0.15623652  0.69229878  0.36175782     0.23900
C1228       C  0.12955560  0.69336800  0.33433519    -0.24200
C1229       C  0.11140095  0.71967308  0.33661264     0.18800
C1230       C  0.11872028  0.74334795  0.36717417     0.23800
C1231       C  0.14440137  0.74158568  0.39630426    -0.24200
C1232       C  0.16365655  0.71629850  0.39229682     0.18700
F1233       F  0.18827600  0.71368293  0.42068811    -0.14100
F1234       F  0.17398300  0.66717189  0.36162523    -0.16500
F1235       F  0.09993293  0.76770514  0.36962033    -0.16500
F1236       F  0.08596289  0.72232425  0.30998219    -0.14100
C1237       C  0.25825241  0.70923264  0.76845157     0.23900
C1238       C  0.26031083  0.72288510  0.81269893    -0.24200
C1239       C  0.25029330  0.75318560  0.81795589     0.18800
C1240       C  0.23914113  0.76956301  0.77953571     0.23800
C1241       C  0.23805989  0.75617626  0.73492010    -0.24200
C1242       C  0.24799819  0.72581751  0.72990928     0.18700
F1243       F  0.24791313  0.71195393  0.68734536    -0.14100
F1244       F  0.26742431  0.68016478  0.76181808    -0.16500
F1245       F  0.22845527  0.79807878  0.78642898    -0.16500
F1246       F  0.25122538  0.76703901  0.86050225    -0.14100
C1247       C  0.98186522  0.73902250  0.13616791     0.23900
C1248       C  0.99167329  0.76490572  0.16060882    -0.24200
C1249       C  0.02093847  0.76545395  0.18045945     0.18800
C1250       C  0.03892107  0.73956425  0.17982290     0.23800
C1251       C  0.02847718  0.71325402  0.15761102    -0.24200
C1252       C  0.00045395  0.71336911  0.13414048     0.18700
F1253       F  0.98994679  0.68777924  0.11316489    -0.14100
F1254       F  0.95338220  0.73760656  0.11807370    -0.16500
F1255       F  0.06582634  0.73956977  0.20314395    -0.16500
F1256       F  0.03159066  0.79069890  0.20229093    -0.14100
C1257       C  0.89676354  0.04291497  0.23861659     0.23900
C1258       C  0.88157239  0.01567008  0.24858434    -0.24200
C1259       C  0.85582526  0.01642418  0.27764666     0.18800
C1260       C  0.84626974  0.04360576  0.29857440     0.23800
C1261       C  0.86228729  0.07085826  0.29070227    -0.24200
C1262       C  0.88691774  0.07030473  0.25874881     0.18700
F1263       F  0.90225805  0.09616975  0.24824342    -0.14100
F1264       F  0.92225716  0.04275439  0.21182955    -0.16500
F1265       F  0.82265886  0.04266355  0.32913188    -0.16500
F1266       F  0.84081762  0.99030306  0.28773769    -0.14100
C1267       C  0.03797922  0.89117260  0.43628025     0.23900
C1268       C  0.04024502  0.86290543  0.45916111    -0.24200
C1269       C  0.01573363  0.84235885  0.45519777     0.18800
C1270       C  0.99114610  0.84867082  0.42581846     0.23800
C1271       C  0.99045979  0.87547436  0.39921073    -0.24200
C1272       C  0.01337123  0.89730681  0.40634854     0.18700
F1273       F  0.01328590  0.92355699  0.38143706    -0.14100
F1274       F  0.06039601  0.91215731  0.44043531    -0.16500
F1275       F  0.96839537  0.82798225  0.42210823    -0.16500
F1276       F  0.01575000  0.81564243  0.47897222    -0.14100
C1277       C  0.99557314  0.21299680  0.89053470     0.23900
C1278       C  0.02294929  0.21301629  0.86520032    -0.24200
C1279       C  0.03169816  0.23878932  0.84009012     0.18800
C1280       C  0.01300175  0.26414371  0.83919385     0.23800
C1281       C  0.98476783  0.26392295  0.86257875    -0.24200
C1282       C  0.97659667  0.23850437  0.88959056     0.18700
F1283       F  0.94949918  0.23752978  0.91220570    -0.14100
F1284       F  0.98615283  0.18744035  0.91286157    -0.16500
F1285       F  0.02227146  0.28879344  0.81441582    -0.16500
F1286       F  0.05780659  0.23886273  0.81470988    -0.14100
C1287       C  0.98372528  0.06896522  0.63374425     0.23900
C1288       C  0.00873944  0.08852444  0.63897835    -0.24200
C1289       C  0.01108439  0.11411386  0.60974165     0.18800
C1290       C  0.98771822  0.12146126  0.57873241     0.23800
C1291       C  0.96132001  0.10348340  0.57653484    -0.24200
C1292       C  0.96020205  0.07632127  0.60254255     0.18700
F1293       F  0.93541238  0.05804045  0.60042813    -0.14100
F1294       F  0.98066577  0.04430311  0.66188944    -0.16500
F1295       F  0.99060025  0.14671133  0.55173510    -0.16500
F1296       F  0.03543263  0.13294228  0.61299765    -0.14100
C1297       C  0.15107853  0.95411279  0.75909019     0.23900
C1298       C  0.12870411  0.95549366  0.79403008    -0.24200
C1299       C  0.11681597  0.92824634  0.81201869     0.18800
C1300       C  0.12556964  0.90014217  0.79268647     0.23800
C1301       C  0.14673478  0.89887296  0.75541307    -0.24200
C1302       C  0.15995921  0.92627859  0.73997093     0.18700
F1303       F  0.17916840  0.92660572  0.70272787    -0.14100
F1304       F  0.16313906  0.98006860  0.74140566    -0.16500
F1305       F  0.11221843  0.87439111  0.80879423    -0.16500
F1306       F  0.09509284  0.92900089  0.84580588    -0.14100
C1307       C  0.99262460  0.98498416  0.97851068     0.23900
C1308       C  0.02097993  0.99918861  0.98606054    -0.24200
C1309       C  0.03272513  0.00044037  0.03179338     0.18800
C1310       C  0.01617308  0.98816189  0.06928142     0.23800
C1311       C  0.98784048  0.97392867  0.06152289    -0.24200
C1312       C  0.97640703  0.97236306  0.01567782     0.18700
F1313       F  0.95007388  0.95748311  0.00634322    -0.14100
F1314       F  0.98040016  0.98333416  0.93478898    -0.16500
F1315       F  0.02767984  0.99053606  0.11335276    -0.16500
F1316       F  0.05947993  0.01469025  0.04055470    -0.14100
C1317       C  0.09930030  0.21838356  0.69471933     0.23900
C1318       C  0.12090088  0.19530487  0.70277494    -0.24200
C1319       C  0.15038701  0.19901419  0.68445540     0.18800
C1320       C  0.15737623  0.22396351  0.65582304     0.23800
C1321       C  0.13515129  0.24591629  0.64567106    -0.24200
C1322       C  0.10649965  0.24343351  0.66702153     0.18700
F1323       F  0.08482711  0.26476608  0.65932189    -0.14100
F1324       F  0.07077794  0.21659855  0.71267734    -0.16500
F1325       F  0.18508652  0.22526337  0.63509347    -0.16500
F1326       F  0.17199296  0.17762254  0.69182625    -0.14100
C1327       C  0.16594456  0.11770326  0.03341167     0.23900
C1328       C  0.16436107  0.09386251  0.00031751    -0.24200
C1329       C  0.19145461  0.07809407  0.98966772     0.18800
C1330       C  0.21927562  0.08702406  0.00929871     0.23800
C1331       C  0.22087262  0.11182545  0.04000013    -0.24200
C1332       C  0.19393432  0.12657229  0.05293274     0.18700
F1333       F  0.19507107  0.15109170  0.08169031    -0.14100
F1334       F  0.14063894  0.13344770  0.04526779    -0.16500
F1335       F  0.24505870  0.07237736  0.99637535    -0.16500
F1336       F  0.19169439  0.05566971  0.95705239    -0.14100
C1337       C  0.00246012  0.70728448  0.63381158     0.23900
C1338       C  0.97423359  0.71926047  0.62070701    -0.24200
C1339       C  0.97145577  0.75062702  0.61242403     0.18800
C1340       C  0.99690033  0.76946943  0.61439213     0.23800
C1341       C  0.02530796  0.75733284  0.62547203    -0.24200
C1342       C  0.02795451  0.72628247  0.63611596     0.18700
F1343       F  0.05557656  0.71408675  0.64559685    -0.14100
F1344       F  0.00574890  0.67701171  0.64078564    -0.16500
F1345       F  0.99421415  0.79920148  0.60268150    -0.16500
F1346       F  0.94417482  0.76282355  0.60080296    -0.14100
C1347       C  0.71490652  0.58637237  0.51860106     0.23900
C1348       C  0.71690147  0.61267858  0.54607649    -0.24200
C1349       C  0.69008036  0.62817164  0.55768314     0.18800
C1350       C  0.66196734  0.61865083  0.53933491     0.23800
C1351       C  0.66018413  0.59352278  0.50866073    -0.24200
C1352       C  0.68690313  0.57656756  0.50073277     0.18700
F1353       F  0.68672522  0.55217195  0.47173816    -0.14100
F1354       F  0.74054704  0.57135341  0.50611754    -0.16500
F1355       F  0.63681410  0.63524326  0.54913003    -0.16500
F1356       F  0.69142862  0.65404936  0.58338159    -0.14100
C1357       C  0.88146812  0.72818352  0.36552560     0.23900
C1358       C  0.85424977  0.72964671  0.39111973    -0.24200
C1359       C  0.83330352  0.75270035  0.38099144     0.18800
C1360       C  0.84073895  0.77557886  0.34870513     0.23800
C1361       C  0.86923549  0.77558674  0.32613269    -0.24200
C1362       C  0.88892363  0.75080776  0.33351024     0.18700
F1363       F  0.91609612  0.74886425  0.31113772    -0.14100
F1364       F  0.90168905  0.70545396  0.37324865    -0.16500
F1365       F  0.82096434  0.79876446  0.34222034    -0.16500
F1366       F  0.80681556  0.75452501  0.40513537    -0.14100
C1367       C  0.96275338  0.58179072  0.43515493     0.23900
C1368       C  0.95947827  0.61085780  0.45520649    -0.24200
C1369       C  0.98267493  0.63245093  0.44722459     0.18800
C1370       C  0.00681664  0.62612708  0.41713309     0.23800
C1371       C  0.00899235  0.59785903  0.39464758    -0.24200
C1372       C  0.98736171  0.57533460  0.40534321     0.18700
F1373       F  0.98867050  0.54780931  0.38412976    -0.14100
F1374       F  0.94136276  0.56007952  0.44216120    -0.16500
F1375       F  0.02759254  0.64827738  0.40863466    -0.16500
F1376       F  0.98187983  0.66022653  0.46772886    -0.14100
C1377       C  0.87664110  0.57285291  0.78761612     0.23900
C1378       C  0.85508584  0.57459389  0.75102011    -0.24200
C1379       C  0.84086565  0.54755040  0.73615944     0.18800
C1380       C  0.84928736  0.51952382  0.75510913     0.23800
C1381       C  0.87196214  0.51762285  0.78964402    -0.24200
C1382       C  0.88483824  0.54459830  0.80694920     0.18700
F1383       F  0.90720930  0.54337497  0.83966364    -0.14100
F1384       F  0.89090979  0.59828116  0.80300221    -0.16500
F1385       F  0.83649619  0.49388291  0.73755113    -0.16500
F1386       F  0.82099064  0.54769275  0.69971355    -0.14100
C1387       C  0.51168236  0.75103828  0.87930750     0.23900
C1388       C  0.53602132  0.74205113  0.90798139    -0.24200
C1389       C  0.53406417  0.71463087  0.93316925     0.18800
C1390       C  0.50715264  0.69812554  0.93341667     0.23800
C1391       C  0.48197214  0.70859232  0.90825262    -0.24200
C1392       C  0.48469611  0.73427700  0.87940141     0.18700
F1393       F  0.46051563  0.74447725  0.85446383    -0.14100
F1394       F  0.51305792  0.77731488  0.85452931    -0.16500
F1395       F  0.50522955  0.67247504  0.95967018    -0.16500
F1396       F  0.55782584  0.70442134  0.95910543    -0.14100
C1397       C  0.61423973  0.72215589  0.20377590     0.23900
C1398       C  0.63328293  0.69664224  0.20779261    -0.24200
C1399       C  0.66083158  0.69632941  0.18255617     0.18800
C1400       C  0.66785348  0.71988805  0.15114955     0.23800
C1401       C  0.64759676  0.74413311  0.14478741    -0.24200
C1402       C  0.62111929  0.74537638  0.17223529     0.18700
F1403       F  0.60086185  0.76827206  0.16636915    -0.14100
F1404       F  0.58822504  0.72417455  0.22917751    -0.16500
F1405       F  0.69279356  0.71739613  0.12343364    -0.16500
F1406       F  0.67979294  0.67216152  0.18532160    -0.14100
C1407       C  0.81003104  0.84576075  0.98410280     0.23900
C1408       C  0.78347225  0.86183783  0.99417020    -0.24200
C1409       C  0.78521767  0.88781579  0.02257552     0.18800
C1410       C  0.81289930  0.89652006  0.04305037     0.23800
C1411       C  0.83929714  0.87888861  0.03635928    -0.24200
C1412       C  0.83763459  0.85401829  0.00500430     0.18700
F1413       F  0.86228876  0.83640644  0.99658869    -0.14100
F1414       F  0.80873134  0.82053862  0.95685013    -0.16500
F1415       F  0.81311231  0.92071765  0.07248000    -0.16500
F1416       F  0.75970098  0.90375182  0.03274776    -0.14100
C1417       C  0.74623106  0.74410109  0.72352884     0.23900
C1418       C  0.76406996  0.71824096  0.73261727    -0.24200
C1419       C  0.77087720  0.71070763  0.77928999     0.18800
C1420       C  0.76077791  0.72920314  0.81604478     0.23800
C1421       C  0.74323929  0.75537105  0.80692249    -0.24200
C1422       C  0.73586471  0.76239105  0.76018260     0.18700
F1423       F  0.71762837  0.78627653  0.74987688    -0.14100
F1424       F  0.73893290  0.75177580  0.67873725    -0.16500
F1425       F  0.76845927  0.72164350  0.86070457    -0.16500
F1426       F  0.78850991  0.68630791  0.78927905    -0.14100
C1427       C  0.49753085  0.75715577  0.40594973     0.23900
C1428       C  0.47045743  0.75656243  0.37969605    -0.24200
C1429       C  0.46352131  0.73086206  0.35291785     0.18800
C1430       C  0.48429830  0.70714028  0.34938635     0.23800
C1431       C  0.51268174  0.70873998  0.37228767    -0.24200
C1432       C  0.51855780  0.73331627  0.40236604     0.18700
F1433       F  0.54553634  0.73546803  0.42514153    -0.14100
F1434       F  0.50490253  0.78213789  0.43136112    -0.16500
F1435       F  0.47697533  0.68291647  0.32219074    -0.16500
F1436       F  0.43735830  0.72961602  0.32775208    -0.14100
C1437       C  0.37773930  0.07315041  0.28750033     0.23900
C1438       C  0.35627875  0.07399840  0.25075351    -0.24200
C1439       C  0.34515698  0.04617724  0.23324974     0.18800
C1440       C  0.35690458  0.01847444  0.24942628     0.23800
C1441       C  0.37945693  0.01770302  0.28435954    -0.24200
C1442       C  0.38893605  0.04529758  0.30448930     0.18700
F1443       F  0.41035018  0.04540749  0.33873634    -0.14100
F1444       F  0.38876438  0.09940114  0.30570753    -0.16500
F1445       F  0.34664043  0.99225019  0.23012366    -0.16500
F1446       F  0.32467318  0.04569356  0.19761976    -0.14100
C1447       C  0.52502577  0.89496200  0.14185137     0.23900
C1448       C  0.50015715  0.87545152  0.14867505    -0.24200
C1449       C  0.49773251  0.84921437  0.12090740     0.18800
C1450       C  0.52063750  0.84149679  0.08922254     0.23800
C1451       C  0.54675023  0.85979010  0.08466825    -0.24200
C1452       C  0.54820642  0.88715229  0.11035098     0.18700
F1453       F  0.57279463  0.90563390  0.10703806    -0.14100
F1454       F  0.52800310  0.92051641  0.16802181    -0.16500
F1455       F  0.51727463  0.81582209  0.06342985    -0.16500
F1456       F  0.47331770  0.83056627  0.12525834    -0.14100
C1457       C  0.39568764  0.75342698  0.20345404     0.23900
C1458       C  0.37719897  0.77960867  0.20386661    -0.24200
C1459       C  0.35044556  0.77970190  0.17682262     0.18800
C1460       C  0.34334773  0.75494637  0.14801849     0.23800
C1461       C  0.36316292  0.73003161  0.14509411    -0.24200
C1462       C  0.38872345  0.72900108  0.17428323     0.18700
F1463       F  0.40746002  0.70457043  0.17353869    -0.14100
F1464       F  0.42103942  0.75160056  0.23045632    -0.16500
F1465       F  0.31835871  0.75640535  0.12019796    -0.16500
F1466       F  0.33220426  0.80447720  0.17573638    -0.14100
C1467       C  0.33492307  0.86788852  0.53975927     0.23900
C1468       C  0.33585521  0.88804089  0.50128117    -0.24200
C1469       C  0.30823709  0.90008244  0.48466531     0.18800
C1470       C  0.28040903  0.88986834  0.50277586     0.23800
C1471       C  0.27945504  0.86813808  0.53892368    -0.24200
C1472       C  0.30699333  0.85820972  0.55861164     0.18700
F1473       F  0.30688061  0.83708165  0.59327493    -0.14100
F1474       F  0.36106026  0.85621472  0.55736692    -0.16500
F1475       F  0.25422895  0.90004572  0.48318863    -0.16500
F1476       F  0.30792651  0.91944609  0.44759221    -0.14100
C1477       C  0.48609293  0.21166501  0.68516431     0.23900
C1478       C  0.51370042  0.21006316  0.66035400    -0.24200
C1479       C  0.52195682  0.23411883  0.63037959     0.18800
C1480       C  0.50443764  0.26066629  0.62943944     0.23800
C1481       C  0.47823495  0.26272730  0.65736557    -0.24200
C1482       C  0.46861058  0.23773732  0.68358041     0.18700
F1483       F  0.44301408  0.23936453  0.71005734    -0.14100
F1484       F  0.47646685  0.18837285  0.71258995    -0.16500
F1485       F  0.51437853  0.28506489  0.60468961    -0.16500
F1486       F  0.54798216  0.23286340  0.60494675    -0.14100
C1487       C  0.51075345  0.12386911  0.92637825     0.23900
C1488       C  0.50949229  0.09800559  0.89775545    -0.24200
C1489       C  0.48463844  0.07815344  0.90192100     0.18800
C1490       C  0.46064303  0.08493824  0.93251515     0.23800
C1491       C  0.46102394  0.11186828  0.95921679    -0.24200
C1492       C  0.48690135  0.13073193  0.95680520     0.18700
F1493       F  0.48880970  0.15651502  0.98270000    -0.14100
F1494       F  0.53456579  0.14337580  0.92314559    -0.16500
F1495       F  0.43606922  0.06632399  0.93315601    -0.16500
F1496       F  0.48217839  0.05373238  0.87315579    -0.14100
C1497       C  0.61484565  0.90450990  0.76326396     0.23900
C1498       C  0.64209060  0.90196678  0.78943685    -0.24200
C1499       C  0.66141590  0.92754407  0.79137246     0.18800
C1500       C  0.65217521  0.95549569  0.77230525     0.23800
C1501       C  0.62388713  0.95829078  0.74979486    -0.24200
C1502       C  0.60599274  0.93232170  0.74374680     0.18700
F1503       F  0.57899720  0.93427589  0.72095562    -0.14100
F1504       F  0.59586410  0.88044806  0.75811200    -0.16500
F1505       F  0.67031931  0.98016422  0.77765076    -0.16500
F1506       F  0.68855357  0.92609700  0.81385643    -0.14100
C1507       C  0.48717406  0.98950188  0.56661695     0.23900
C1508       C  0.51666578  0.00154524  0.55984177    -0.24200
C1509       C  0.52905528  0.00116654  0.51453418     0.18800
C1510       C  0.51250487  0.98907160  0.47698480     0.23800
C1511       C  0.48312553  0.97675416  0.48374346    -0.24200
C1512       C  0.47052808  0.97751445  0.52896699     0.18700
F1513       F  0.44254817  0.96570522  0.53721210    -0.14100
F1514       F  0.47444114  0.98909816  0.61003348    -0.16500
F1515       F  0.52527574  0.98964593  0.43360677    -0.16500
F1516       F  0.55672519  0.01362876  0.50606619    -0.14100
C1517       C  0.60929710  0.22459762  0.83634582     0.23900
C1518       C  0.63014570  0.20065319  0.82963390    -0.24200
C1519       C  0.65865312  0.20244893  0.85197067     0.18800
C1520       C  0.66484058  0.22593659  0.88380253     0.23800
C1521       C  0.64268603  0.24796456  0.89374401    -0.24200
C1522       C  0.61544939  0.24779501  0.86812348     0.18700
F1523       F  0.59404691  0.26946300  0.87534352    -0.14100
F1524       F  0.58226646  0.22520224  0.81338845    -0.16500
F1525       F  0.69145880  0.22560377  0.90782487    -0.16500
F1526       F  0.67982944  0.18053238  0.84551496    -0.14100
C1527       C  0.66670670  0.11702453  0.50508830     0.23900
C1528       C  0.66590329  0.09419537  0.54001647    -0.24200
C1529       C  0.69273576  0.07775241  0.54896190     0.18800
C1530       C  0.72004638  0.08584704  0.52695241     0.23800
C1531       C  0.72107276  0.10991855  0.49461835    -0.24200
C1532       C  0.69400398  0.12460056  0.48243130     0.18700
F1533       F  0.69448623  0.14806101  0.45156366    -0.14100
F1534       F  0.64143326  0.13326505  0.49462397    -0.16500
F1535       F  0.74604097  0.07149897  0.53967015    -0.16500
F1536       F  0.69332080  0.05562581  0.58210712    -0.14100
loop_ 
_geom_bond_atom_site_label_1 
_geom_bond_atom_site_label_2 
_geom_bond_distance 
_geom_bond_site_symmetry_2 
_ccdc_geom_bond_type 
Zr1           O2   2.442       .  S
Zr1           O3   2.495       .  S
Zr1           O4   2.474   1_545  S
Zr1           O7   2.473       .  S
Zr1           O9   2.387       .  S
Zr1          O10   2.388       .  S
Zr1          O11   2.429       .  S
Zr1          O12   2.406       .  S
O2           H58   0.990   1_545  S
O2           H66   0.990       .  S
O3           C23   1.295       .  A
O4           C25   1.289       .  A
O5          Zr15   2.427       .  S
O5           C24   1.284       .  A
O6          Zr14   2.433       .  S
O6           C25   1.284   1_545  A
O7           C24   1.293       .  A
O8          Zr16   2.368       .  S
O8           C23   1.271       .  A
O9          Zr14   2.404       .  S
O9          Zr16   2.387       .  S
O10         Zr15   2.391       .  S
O10         Zr16   2.388       .  S
O10          H45   0.966       .  S
O11         Zr14   2.401       .  S
O11         Zr31   2.412       .  S
O11          H48   0.965       .  S
O12         Zr15   2.390       .  S
O12         Zr31   2.401       .  S
Zr13         O38   2.443       .  S
Zr13         O32   2.409       .  S
Zr13         O40   2.424       .  S
Zr13         O28   2.419       .  S
Zr13         O19   2.382       .  S
Zr13         O20   2.398       .  S
Zr13         O21   2.376       .  S
Zr13         O22   2.379       .  S
Zr14         O33   2.434       .  S
Zr14         O26   2.435       .  S
Zr14         O27   2.453       .  S
Zr14         O20   2.394       .  S
Zr14         O21   2.397       .  S
Zr15         O17   2.435       .  S
Zr15         O39   2.438       .  S
Zr15         O41   2.436       .  S
Zr15         O19   2.388       .  S
Zr15         O22   2.396       .  S
Zr16         O42   2.435       .  S
Zr16         O43   2.437       .  S
Zr16         O18   2.437       .  S
Zr16         O19   2.369       .  S
Zr16         O20   2.366       .  S
O17          H54   0.990       .  S
O18          H49   0.990       .  S
O18          H63   0.990       .  S
O20          H46   0.964       .  S
O21         Zr31   2.375       .  S
O22         Zr31   2.383       .  S
O22          H47   0.966       .  S
C23        C1508   1.486       .  S
C24        C1528   1.496       .  S
C25        C1501   1.483       .  S
O26          H62   0.990       .  S
O27          C29   1.288       .  A
O28          C29   1.282       .  A
C29        C1488   1.475       .  S
O30         Zr31   2.439       .  S
O30          H59   0.990       .  S
Zr31         O34   2.439       .  S
Zr31         O35   2.438       .  S
Zr31         O36   2.450       .  S
O32          C37   1.279       .  A
O33          H50   0.990       .  S
O33          H65   0.990       .  S
O34          H51   0.990       .  S
O35          H55   0.990       .  S
O35          H64   0.990       .  S
O36          C37   1.286       .  A
C37        C1518   1.490       .  S
O38          H57   0.990       .  S
O38          H61   0.990       .  S
O39          H53   0.990       .  S
O39          H60   0.990       .  S
O40          C44   1.283       .  A
O41          C44   1.284       .  A
O42          H52   0.990       .  S
O43          H56   0.990       .  S
C44        C1478   1.475       .  S
Zr67         O68   2.441       .  S
Zr67         O69   2.493       .  S
Zr67         O70   2.479       .  S
Zr67         O73   2.469       .  S
Zr67         O75   2.381       .  S
Zr67         O76   2.389       .  S
Zr67         O77   2.427       .  S
Zr67         O78   2.424       .  S
O68         H124   0.990       .  S
O68         H132   0.991       .  S
O69          C89   1.295       .  A
O70          C91   1.293       .  A
O71         Zr81   2.446       .  S
O71          C90   1.288       .  A
O72         Zr80   2.436       .  S
O72          C91   1.285       .  A
O73          C90   1.290       .  A
O74         Zr82   2.369       .  S
O74          C89   1.272       .  A
O75         Zr80   2.404       .  S
O75         Zr82   2.392       .  S
O76         Zr81   2.401       .  S
O76         Zr82   2.382       .  S
O76         H111   0.965       .  S
O77         Zr80   2.407       .  S
O77         Zr97   2.389       .  S
O77         H114   0.963       .  S
O78         Zr81   2.394       .  S
O78         Zr97   2.407       .  S
Zr79        O104   2.443       .  S
Zr79         O98   2.400       .  S
Zr79        O106   2.419       .  S
Zr79         O94   2.423       .  S
Zr79         O85   2.392       .  S
Zr79         O86   2.388       .  S
Zr79         O87   2.373       .  S
Zr79         O88   2.384       .  S
Zr80         O99   2.437       .  S
Zr80         O92   2.433       .  S
Zr80         O93   2.453       .  S
Zr80         O86   2.399       .  S
Zr80         O87   2.394       .  S
Zr81         O83   2.435       .  S
Zr81        O105   2.438       .  S
Zr81        O107   2.448       .  S
Zr81         O85   2.398       .  S
Zr81         O88   2.400       .  S
Zr82        O108   2.436       .  S
Zr82        O109   2.438       .  S
Zr82         O84   2.439       .  S
Zr82         O85   2.378       .  S
Zr82         O86   2.367       .  S
O83         H120   0.990       .  S
O84         H115   0.990       .  S
O84         H129   0.990       .  S
O86         H112   0.964       .  S
O87         Zr97   2.380       .  S
O88         Zr97   2.370       .  S
O88         H113   0.966       .  S
C89        C1511   1.488       .  S
C90        C1441   1.494   1_565  S
C91        C1468   1.493       .  S
O92         H128   0.990       .  S
O93          C95   1.288       .  A
O94          C95   1.283       .  A
C95        C1428   1.471       .  S
O96         Zr97   2.441       .  S
O96         H125   0.990       .  S
Zr97        O100   2.439       .  S
Zr97        O101   2.439       .  S
Zr97        O102   2.444       .  S
O98         C103   1.277       .  A
O99         H116   0.990       .  S
O99         H131   0.990       .  S
O100        H117   0.990       .  S
O101        H121   0.990       .  S
O101        H130   0.990       .  S
O102        C103   1.285       .  A
C103       C1458   1.485       .  S
O104        H123   0.990       .  S
O104        H127   0.991       .  S
O105        H119   0.990       .  S
O105        H126   0.990       .  S
O106        C110   1.282       .  A
O107        C110   1.287       .  A
O108        H118   0.990       .  S
O109        H122   0.990       .  S
C110       C1448   1.480       .  S
Zr133       O134   2.440       .  S
Zr133       O135   2.472       .  S
Zr133       O136   2.473       .  S
Zr133       O139   2.480       .  S
Zr133       O141   2.395       .  S
Zr133       O142   2.400       .  S
Zr133       O143   2.425       .  S
Zr133       O144   2.396       .  S
O134        H190   0.990       .  S
O134        H198   0.990       .  S
O135        C155   1.288       .  A
O136        C157   1.290       .  A
O137       Zr147   2.427       .  S
O137        C156   1.284       .  A
O138       Zr146   2.420       .  S
O138        C157   1.283   1_554  A
O139        C156   1.294       .  A
O140       Zr148   2.393       .  S
O140        C155   1.271       .  A
O141       Zr146   2.399   1_556  S
O141       Zr148   2.382       .  S
O142       Zr147   2.391       .  S
O142       Zr148   2.389       .  S
O142        H177   0.966       .  S
O143       Zr146   2.412   1_556  S
O143       Zr163   2.399       .  S
O143        H180   0.965       .  S
O144       Zr147   2.384       .  S
O144       Zr163   2.385       .  S
Zr145       O170   2.443       .  S
Zr145       O164   2.435       .  S
Zr145       O172   2.413   1_554  S
Zr145       O160   2.405       .  S
Zr145       O151   2.392   1_554  S
Zr145       O152   2.401   1_554  S
Zr145       O153   2.373       .  S
Zr145       O154   2.374   1_554  S
Zr146       O165   2.436       .  S
Zr146       O158   2.435       .  S
Zr146       O159   2.460       .  S
Zr146       O152   2.388   1_554  S
Zr146       O153   2.397       .  S
Zr147       O149   2.435       .  S
Zr147       O171   2.436       .  S
Zr147       O173   2.429       .  S
Zr147       O151   2.386       .  S
Zr147       O154   2.398       .  S
Zr148       O174   2.437       .  S
Zr148       O175   2.434       .  S
Zr148       O150   2.443       .  S
Zr148       O151   2.379       .  S
Zr148       O152   2.386       .  S
O149        H186   0.990       .  S
O150        H181   0.990       .  S
O150        H195   0.990       .  S
O152        H178   0.964   1_556  S
O153       Zr163   2.377   1_554  S
O154       Zr163   2.383       .  S
O154        H179   0.965       .  S
C155       C1421   1.483       .  S
C156       C1498   1.503       .  S
C157       C1408   1.476       .  S
O158        H194   0.990       .  S
O159        C161   1.289       .  A
O160        C161   1.279       .  A
C161       C1401   1.476       .  S
O162       Zr163   2.438       .  S
O162        H191   0.990       .  S
Zr163       O166   2.439   1_556  S
Zr163       O167   2.440       .  S
Zr163       O168   2.424   1_556  S
O164        C169   1.283       .  A
O165        H182   0.990       .  S
O165        H197   0.990       .  S
O166        H183   0.990       .  S
O167        H187   0.990       .  S
O167        H196   0.990       .  S
O168        C169   1.281       .  A
C169       C1451   1.490       .  S
O170        H189   0.990       .  S
O170        H193   0.990       .  S
O171        H185   0.990       .  S
O171        H192   0.990       .  S
O172        C176   1.280       .  A
O173        C176   1.283       .  A
O174        H184   0.990       .  S
O175        H188   0.990       .  S
C176       C1388   1.468       .  S
Zr199       O200   2.440       .  S
Zr199       O201   2.477       .  S
Zr199       O202   2.466       .  S
Zr199       O205   2.456       .  S
Zr199       O207   2.375       .  S
Zr199       O208   2.393       .  S
Zr199       O209   2.424       .  S
Zr199       O210   2.428       .  S
O200        H256   0.990       .  S
O200        H264   0.990       .  S
O201        C221   1.290       .  A
O202        C223   1.291       .  A
O203       Zr213   2.439       .  S
O203        C222   1.285       .  A
O204       Zr212   2.446       .  S
O204        C223   1.287       .  A
O205        C222   1.287       .  A
O206       Zr214   2.369       .  S
O206        C221   1.271       .  A
O207       Zr212   2.403       .  S
O207       Zr214   2.395       .  S
O208       Zr213   2.397       .  S
O208       Zr214   2.376       .  S
O208        H243   0.966       .  S
O209       Zr212   2.408       .  S
O209       Zr229   2.386       .  S
O209        H246   0.962       .  S
O210       Zr213   2.393       .  S
O210       Zr229   2.411       .  S
Zr211       O236   2.444       .  S
Zr211       O230   2.415       .  S
Zr211       O238   2.399       .  S
Zr211       O226   2.430       .  S
Zr211       O217   2.402       .  S
Zr211       O218   2.396       .  S
Zr211       O219   2.370       .  S
Zr211       O220   2.386       .  S
Zr212       O231   2.436       .  S
Zr212       O224   2.436       .  S
Zr212       O225   2.453       .  S
Zr212       O218   2.403       .  S
Zr212       O219   2.404       .  S
Zr213       O215   2.436       .  S
Zr213       O237   2.438       .  S
Zr213       O239   2.446       .  S
Zr213       O217   2.397       .  S
Zr213       O220   2.402       .  S
Zr214       O240   2.436       .  S
Zr214       O241   2.437       .  S
Zr214       O216   2.438       .  S
Zr214       O217   2.376       .  S
Zr214       O218   2.362       .  S
O215        H252   0.990       .  S
O216        H247   0.990       .  S
O216        H261   0.990       .  S
O218        H244   0.964       .  S
O219       Zr229   2.385       .  S
O220       Zr229   2.365       .  S
O220        H245   0.966       .  S
C221       C1418   1.477       .  S
C222       C1348   1.483       .  S
C223       C1378   1.493       .  S
O224        H260   0.990       .  S
O225        C227   1.287       .  A
O226        C227   1.283       .  A
C227       C1338   1.470       .  S
O228       Zr229   2.436       .  S
O228        H257   0.990       .  S
Zr229       O232   2.436       .  S
Zr229       O233   2.439       .  S
Zr229       O234   2.449       .  S
O230        C235   1.279       .  A
O231        H248   0.990       .  S
O231        H263   0.990       .  S
O232        H249   0.990       .  S
O233        H253   0.990       .  S
O233        H262   0.990       .  S
O234        C235   1.285       .  A
C235       C1368   1.496       .  S
O236        H255   0.991       .  S
O236        H259   0.990       .  S
O237        H251   0.990       .  S
O237        H258   0.990       .  S
O238        C242   1.279       .  A
O239        C242   1.286       .  A
O240        H250   0.989       .  S
O241        H254   0.990       .  S
C242       C1358   1.473       .  S
Zr265       O266   2.442       .  S
Zr265       O267   2.481       .  S
Zr265       O268   2.475       .  S
Zr265       O271   2.465   1_545  S
Zr265       O273   2.383       .  S
Zr265       O274   2.391       .  S
Zr265       O275   2.429       .  S
Zr265       O276   2.428       .  S
O266        H322   0.990       .  S
O266        H330   0.990       .  S
O267        C287   1.291       .  A
O268        C289   1.292       .  A
O269       Zr279   2.427   1_565  S
O269        C288   1.284       .  A
O270       Zr278   2.462       .  S
O270        C289   1.289       .  A
O271        C288   1.289       .  A
O272       Zr280   2.355       .  S
O272        C287   1.269       .  A
O273       Zr278   2.397       .  S
O273       Zr280   2.402       .  S
O274       Zr279   2.401       .  S
O274       Zr280   2.373       .  S
O274        H309   0.965       .  S
O275       Zr278   2.402       .  S
O275       Zr295   2.379       .  S
O275        H312   0.961       .  S
O276       Zr279   2.402       .  S
O276       Zr295   2.412       .  S
Zr277       O302   2.442       .  S
Zr277       O296   2.398       .  S
Zr277       O304   2.413       .  S
Zr277       O292   2.405       .  S
Zr277       O283   2.382       .  S
Zr277       O284   2.391       .  S
Zr277       O285   2.376       .  S
Zr277       O286   2.379       .  S
Zr278       O297   2.437       .  S
Zr278       O290   2.436       .  S
Zr278       O291   2.440       .  S
Zr278       O284   2.404       .  S
Zr278       O285   2.400       .  S
Zr279       O281   2.436       .  S
Zr279       O303   2.438       .  S
Zr279       O305   2.451       .  S
Zr279       O283   2.386       .  S
Zr279       O286   2.399       .  S
Zr280       O306   2.436   1_455  S
Zr280       O307   2.437   1_455  S
Zr280       O282   2.436   1_455  S
Zr280       O283   2.365       .  S
Zr280       O284   2.368       .  S
O281        H318   0.990       .  S
O282        H313   0.991       .  S
O282        H327   0.990       .  S
O284        H310   0.965       .  S
O285       Zr295   2.377       .  S
O286       Zr295   2.366       .  S
O286        H311   0.966       .  S
C287       C1308   1.477   1_545  S
C288       C1298   1.484       .  S
C289       C1328   1.502   1_556  S
O290        H326   0.990       .  S
O291        C293   1.285       .  A
O292        C293   1.280       .  A
C293       C1278   1.458       .  S
O294       Zr295   2.440       .  S
O294        H323   0.990       .  S
Zr295       O298   2.436       .  S
Zr295       O299   2.439       .  S
Zr295       O300   2.445       .  S
O296        C301   1.277       .  A
O297        H314   0.990       .  S
O297        H329   0.990       .  S
O298        H315   0.990       .  S
O299        H319   0.990       .  S
O299        H328   0.990       .  S
O300        C301   1.285       .  A
C301       C1318   1.488       .  S
O302        H321   0.990   1_455  S
O302        H325   0.990       .  S
O303        H317   0.990   1_545  S
O303        H324   0.990   1_545  S
O304        C308   1.281       .  A
O305        C308   1.288       .  A
O306        H316   0.990       .  S
O307        H320   0.990       .  S
C308       C1288   1.476       .  S
Zr331       O332   2.441       .  S
Zr331       O333   2.469       .  S
Zr331       O334   2.478       .  S
Zr331       O337   2.482       .  S
Zr331       O339   2.388       .  S
Zr331       O340   2.394       .  S
Zr331       O341   2.423       .  S
Zr331       O342   2.394       .  S
O332        H388   0.990       .  S
O332        H396   0.991       .  S
O333        C353   1.291       .  A
O334        C355   1.291       .  A
O335       Zr345   2.427       .  S
O335        C354   1.285       .  A
O336       Zr344   2.420       .  S
O336        C355   1.282       .  A
O337        C354   1.295       .  A
O338       Zr346   2.382       .  S
O338        C353   1.273       .  A
O339       Zr344   2.404       .  S
O339       Zr346   2.382       .  S
O340       Zr345   2.395       .  S
O340       Zr346   2.389       .  S
O340        H375   0.966       .  S
O341       Zr344   2.408       .  S
O341       Zr361   2.409       .  S
O341        H378   0.966       .  S
O342       Zr345   2.380       .  S
O342       Zr361   2.379       .  S
Zr343       O368   2.444       .  S
Zr343       O362   2.411       .  S
Zr343       O370   2.418       .  S
Zr343       O358   2.438       .  S
Zr343       O349   2.385       .  S
Zr343       O350   2.395       .  S
Zr343       O351   2.375       .  S
Zr343       O352   2.382       .  S
Zr344       O363   2.436       .  S
Zr344       O356   2.435       .  S
Zr344       O357   2.445       .  S
Zr344       O350   2.393       .  S
Zr344       O351   2.397       .  S
Zr345       O347   2.436       .  S
Zr345       O369   2.440       .  S
Zr345       O371   2.436       .  S
Zr345       O349   2.380       .  S
Zr345       O352   2.393       .  S
Zr346       O372   2.435   1_655  S
Zr346       O373   2.434   1_655  S
Zr346       O348   2.436   1_655  S
Zr346       O349   2.369       .  S
Zr346       O350   2.377       .  S
O347        H384   0.990       .  S
O348        H379   0.990       .  S
O348        H393   0.990       .  S
O350        H376   0.965       .  S
O351       Zr361   2.384       .  S
O352       Zr361   2.386       .  S
O352        H377   0.966       .  S
C353       C1311   1.478       .  S
C354       C1411   1.499       .  S
C355       C1258   1.482   1_565  S
O356        H392   0.990       .  S
O357        C359   1.286       .  A
O358        C359   1.284       .  A
C359       C1271   1.483       .  S
O360       Zr361   2.440       .  S
O360        H389   0.990       .  S
Zr361       O364   2.435       .  S
Zr361       O365   2.442       .  S
Zr361       O366   2.437       .  S
O362        C367   1.279       .  A
O363        H380   0.990       .  S
O363        H395   0.990       .  S
O364        H381   0.990       .  S
O365        H385   0.990       .  S
O365        H394   0.991       .  S
O366        C367   1.284       .  A
C367       C1361   1.485       .  S
O368        H387   0.991       .  S
O368        H391   0.990       .  S
O369        H383   0.990       .  S
O369        H390   0.990       .  S
O370        C374   1.283       .  A
O371        C374   1.284       .  A
O372        H382   0.990       .  S
O373        H386   0.990       .  S
C374       C1248   1.468       .  S
Zr397       O398   2.441       .  S
Zr397       O399   2.484       .  S
Zr397       O400   2.482       .  S
Zr397       O403   2.470       .  S
Zr397       O405   2.382       .  S
Zr397       O406   2.399       .  S
Zr397       O407   2.429       .  S
Zr397       O408   2.424       .  S
O398        H454   0.990       .  S
O398        H462   0.990       .  S
O399        C419   1.292       .  A
O400        C421   1.294       .  A
O401       Zr411   2.434       .  S
O401        C420   1.286       .  A
O402       Zr410   2.445       .  S
O402        C421   1.286       .  A
O403        C420   1.290       .  A
O404       Zr412   2.356       .  S
O404        C419   1.269       .  A
O405       Zr410   2.397       .  S
O405       Zr412   2.396       .  S
O406       Zr411   2.402       .  S
O406       Zr412   2.378       .  S
O406        H441   0.967       .  S
O407       Zr410   2.413       .  S
O407       Zr427   2.387       .  S
O407        H444   0.963       .  S
O408       Zr411   2.395       .  S
O408       Zr427   2.405       .  S
Zr409       O434   2.442       .  S
Zr409       O428   2.415       .  S
Zr409       O436   2.420       .  S
Zr409       O424   2.418       .  S
Zr409       O415   2.394       .  S
Zr409       O416   2.396       .  S
Zr409       O417   2.375       .  S
Zr409       O418   2.384       .  S
Zr410       O429   2.438       .  S
Zr410       O422   2.435       .  S
Zr410       O423   2.447       .  S
Zr410       O416   2.397       .  S
Zr410       O417   2.404       .  S
Zr411       O413   2.435       .  S
Zr411       O435   2.435       .  S
Zr411       O437   2.457       .  S
Zr411       O415   2.387       .  S
Zr411       O418   2.401       .  S
Zr412       O438   2.435       .  S
Zr412       O439   2.436       .  S
Zr412       O414   2.438       .  S
Zr412       O415   2.371       .  S
Zr412       O416   2.362       .  S
O413        H450   0.990       .  S
O414        H445   0.990       .  S
O414        H459   0.990       .  S
O416        H442   0.964       .  S
O417       Zr427   2.384       .  S
O418       Zr427   2.371       .  S
O418        H443   0.966       .  S
C419       C1241   1.483       .  S
C420       C1471   1.489       .  S
C421       C1301   1.496       .  S
O422        H458   0.990       .  S
O423        C425   1.286       .  A
O424        C425   1.281       .  A
C425       C1341   1.462       .  S
O426       Zr427   2.440       .  S
O426        H455   0.990       .  S
Zr427       O430   2.436       .  S
Zr427       O431   2.440       .  S
Zr427       O432   2.442       .  S
O428        C433   1.280       .  A
O429        H446   0.990       .  S
O429        H461   0.990       .  S
O430        H447   0.990       .  S
O431        H451   0.990       .  S
O431        H460   0.990       .  S
O432        C433   1.285       .  A
C433       C1268   1.492       .  S
O434        H453   0.991       .  S
O434        H457   0.990       .  S
O435        H449   0.990       .  S
O435        H456   0.990       .  S
O436        C440   1.281       .  A
O437        C440   1.289       .  A
O438        H448   0.990       .  S
O439        H452   0.990       .  S
C440       C1231   1.482       .  S
Zr463       O464   2.440       .  S
Zr463       O465   2.477       .  S
Zr463       O466   2.473       .  S
Zr463       O469   2.473       .  S
Zr463       O471   2.385       .  S
Zr463       O472   2.395       .  S
Zr463       O473   2.421       .  S
Zr463       O474   2.400       .  S
O464        H520   0.990       .  S
O464        H528   0.990       .  S
O465        C485   1.292       .  A
O466        C487   1.290       .  A
O467       Zr477   2.431       .  S
O467        C486   1.284       .  A
O468       Zr476   2.416       .  S
O468        C487   1.282   1_554  A
O469        C486   1.293       .  A
O470       Zr478   2.373       .  S
O470        C485   1.271       .  A
O471       Zr476   2.397   1_556  S
O471       Zr478   2.387       .  S
O472       Zr477   2.385       .  S
O472       Zr478   2.389       .  S
O472        H507   0.965       .  S
O473       Zr476   2.397   1_556  S
O473       Zr493   2.399       .  S
O473        H510   0.964       .  S
O474       Zr477   2.379       .  S
O474       Zr493   2.389       .  S
Zr475       O500   2.442       .  S
Zr475       O494   2.423       .  S
Zr475       O502   2.422   1_554  S
Zr475       O490   2.440       .  S
Zr475       O481   2.401   1_554  S
Zr475       O482   2.398       .  S
Zr475       O483   2.375       .  S
Zr475       O484   2.379   1_554  S
Zr476       O495   2.436       .  S
Zr476       O488   2.435       .  S
Zr476       O489   2.430       .  S
Zr476       O482   2.399       .  S
Zr476       O483   2.402       .  S
Zr477       O479   2.436       .  S
Zr477       O501   2.438       .  S
Zr477       O503   2.417       .  S
Zr477       O481   2.392       .  S
Zr477       O484   2.399       .  S
Zr478       O504   2.437       .  S
Zr478       O505   2.437       .  S
Zr478       O480   2.438       .  S
Zr478       O481   2.387       .  S
Zr478       O482   2.369   1_556  S
O479        H516   0.990       .  S
O480        H511   0.990       .  S
O480        H525   0.990       .  S
O482        H508   0.966       .  S
O483       Zr493   2.379   1_554  S
O484       Zr493   2.379       .  S
O484        H509   0.966       .  S
C485       C1238   1.481       .  S
C486       C1221   1.490       .  S
C487       C1198   1.479   1_556  S
O488        H524   0.990       .  S
O489        C491   1.283       .  A
O490        C491   1.285       .  A
C491       C1461   1.472       .  S
O492       Zr493   2.441       .  S
O492        H521   0.990       .  S
Zr493       O496   2.437   1_556  S
Zr493       O497   2.440       .  S
Zr493       O498   2.450   1_556  S
O494        C499   1.282       .  A
O495        H512   0.990       .  S
O495        H527   0.990       .  S
O496        H513   0.990       .  S
O497        H517   0.990       .  S
O497        H526   0.991       .  S
O498        C499   1.286       .  A
C499       C1208   1.494       .  S
O500        H519   0.990       .  S
O500        H523   0.990       .  S
O501        H515   0.990       .  S
O501        H522   0.990       .  S
O502        C506   1.283       .  A
O503        C506   1.280       .  A
O504        H514   0.990       .  S
O505        H518   0.990       .  S
C506       C1391   1.460       .  S
Zr529       O530   2.442       .  S
Zr529       O531   2.478       .  S
Zr529       O532   2.474       .  S
Zr529       O535   2.478       .  S
Zr529       O537   2.391       .  S
Zr529       O538   2.392       .  S
Zr529       O539   2.426       .  S
Zr529       O540   2.399       .  S
O530        H586   0.990       .  S
O530        H594   0.990       .  S
O531        C551   1.292       .  A
O532        C553   1.290       .  A
O533       Zr543   2.408       .  S
O533        C552   1.279       .  A
O534       Zr542   2.426       .  S
O534        C553   1.283       .  A
O535        C552   1.294       .  A
O536       Zr544   2.375       .  S
O536        C551   1.273       .  A
O537       Zr542   2.408       .  S
O537       Zr544   2.387       .  S
O538       Zr543   2.382       .  S
O538       Zr544   2.386       .  S
O538        H573   0.965       .  S
O539       Zr542   2.405       .  S
O539       Zr559   2.400       .  S
O539        H576   0.965       .  S
O540       Zr543   2.387       .  S
O540       Zr559   2.388       .  S
Zr541       O566   2.444       .  S
Zr541       O560   2.425       .  S
Zr541       O568   2.405       .  S
Zr541       O556   2.420       .  S
Zr541       O547   2.394       .  S
Zr541       O548   2.397       .  S
Zr541       O549   2.376       .  S
Zr541       O550   2.373       .  S
Zr542       O561   2.434       .  S
Zr542       O554   2.436       .  S
Zr542       O555   2.453       .  S
Zr542       O548   2.396       .  S
Zr542       O549   2.398       .  S
Zr543       O545   2.434       .  S
Zr543       O567   2.437       .  S
Zr543       O569   2.411       .  S
Zr543       O547   2.385       .  S
Zr543       O550   2.395       .  S
Zr544       O570   2.435       .  S
Zr544       O571   2.438       .  S
Zr544       O546   2.441       .  S
Zr544       O547   2.387       .  S
Zr544       O548   2.362       .  S
O545        H582   0.990       .  S
O546        H577   0.990       .  S
O546        H591   0.990       .  S
O548        H574   0.964       .  S
O549       Zr559   2.381       .  S
O550       Zr559   2.380       .  S
O550        H575   0.966       .  S
C551       C1171   1.483       .  S
C552       C1191   1.485       .  S
C553       C1161   1.481       .  S
O554        H590   0.990       .  S
O555        C557   1.288       .  A
O556        C557   1.282       .  A
C557       C1321   1.479       .  S
O558       Zr559   2.436       .  S
O558        H587   0.990       .  S
Zr559       O562   2.437       .  S
Zr559       O563   2.437       .  S
Zr559       O564   2.429       .  S
O560        C565   1.283       .  A
O561        H578   0.990       .  S
O561        H593   0.990       .  S
O562        H579   0.990       .  S
O563        H583   0.990       .  S
O563        H592   0.991       .  S
O564        C565   1.281       .  A
C565       C1181   1.484       .  S
O566        H585   0.990       .  S
O566        H589   0.990       .  S
O567        H581   0.990       .  S
O567        H588   0.990       .  S
O568        C572   1.280       .  A
O569        C572   1.278       .  A
O570        H580   0.989       .  S
O571        H584   0.990       .  S
C572       C1151   1.457       .  S
Zr595       O596   2.442       .  S
Zr595       O597   2.487       .  S
Zr595       O598   2.479       .  S
Zr595       O601   2.463       .  S
Zr595       O603   2.385       .  S
Zr595       O604   2.392       .  S
Zr595       O605   2.426       .  S
Zr595       O606   2.426       .  S
O596        H652   0.990       .  S
O596        H660   0.990       .  S
O597        C617   1.293       .  A
O598        C619   1.293       .  A
O599       Zr609   2.423       .  S
O599        C618   1.283       .  A
O600       Zr608   2.445       .  S
O600        C619   1.287       .  A
O601        C618   1.289       .  A
O602       Zr610   2.369       .  S
O602        C617   1.270       .  A
O603       Zr608   2.408       .  S
O603       Zr610   2.399       .  S
O604       Zr609   2.397       .  S
O604       Zr610   2.375       .  S
O604        H639   0.966       .  S
O605       Zr608   2.404       .  S
O605       Zr625   2.376       .  S
O605        H642   0.962       .  S
O606       Zr609   2.390       .  S
O606       Zr625   2.405       .  S
Zr607       O632   2.442   1_554  S
Zr607       O626   2.422   1_554  S
Zr607       O634   2.414   1_554  S
Zr607       O622   2.428       .  S
Zr607       O613   2.396       .  S
Zr607       O614   2.402       .  S
Zr607       O615   2.371       .  S
Zr607       O616   2.382   1_554  S
Zr608       O627   2.436       .  S
Zr608       O620   2.434       .  S
Zr608       O621   2.452       .  S
Zr608       O614   2.403       .  S
Zr608       O615   2.400       .  S
Zr609       O611   2.435   1_554  S
Zr609       O633   2.436   1_554  S
Zr609       O635   2.438   1_554  S
Zr609       O613   2.387       .  S
Zr609       O616   2.394   1_554  S
Zr610       O636   2.436       .  S
Zr610       O637   2.436       .  S
Zr610       O612   2.440       .  S
Zr610       O613   2.372       .  S
Zr610       O614   2.363       .  S
O611        H648   0.990       .  S
O612        H643   0.990       .  S
O612        H657   0.990       .  S
O614        H640   0.964       .  S
O615       Zr625   2.384       .  S
O616       Zr625   2.365   1_556  S
O616        H641   0.966       .  S
C617       C1168   1.491       .  S
C618       C1331   1.481       .  S
C619       C1438   1.495       .  S
O620        H656   0.990       .  S
O621        C623   1.287       .  A
O622        C623   1.284       .  A
C623       C1128   1.472       .  S
O624       Zr625   2.435       .  S
O624        H653   0.990       .  S
Zr625       O628   2.435       .  S
Zr625       O629   2.439   1_554  S
Zr625       O630   2.433       .  S
O626        C631   1.281       .  A
O627        H644   0.990       .  S
O627        H659   0.990       .  S
O628        H645   0.989       .  S
O629        H649   0.989       .  S
O629        H658   0.990       .  S
O630        C631   1.283   1_554  A
C631       C1491   1.489       .  S
O632        H651   0.990   1_556  S
O632        H655   0.990       .  S
O633        H647   0.990       .  S
O633        H654   0.990       .  S
O634        C638   1.281       .  A
O635        C638   1.285       .  A
O636        H646   0.990       .  S
O637        H650   0.990       .  S
C638       C1141   1.470       .  S
Zr661       O662   2.441       .  S
Zr661       O663   2.489       .  S
Zr661       O664   2.472       .  S
Zr661       O667   2.461       .  S
Zr661       O669   2.379       .  S
Zr661       O670   2.392       .  S
Zr661       O671   2.424       .  S
Zr661       O672   2.424       .  S
O662        H718   0.990       .  S
O662        H726   0.990       .  S
O663        C683   1.293       .  A
O664        C685   1.292       .  A
O665       Zr675   2.440       .  S
O665        C684   1.286       .  A
O666       Zr674   2.449       .  S
O666        C685   1.288       .  A
O667        C684   1.289       .  A
O668       Zr676   2.377       .  S
O668        C683   1.272       .  A
O669       Zr674   2.403       .  S
O669       Zr676   2.394       .  S
O670       Zr675   2.407       .  S
O670       Zr676   2.368       .  S
O670        H705   0.965       .  S
O671       Zr674   2.414       .  S
O671       Zr691   2.383       .  S
O671        H708   0.962       .  S
O672       Zr675   2.399       .  S
O672       Zr691   2.403       .  S
Zr673       O698   2.443       .  S
Zr673       O692   2.428       .  S
Zr673       O700   2.426       .  S
Zr673       O688   2.432       .  S
Zr673       O679   2.402       .  S
Zr673       O680   2.398       .  S
Zr673       O681   2.370       .  S
Zr673       O682   2.382       .  S
Zr674       O693   2.438       .  S
Zr674       O686   2.434       .  S
Zr674       O687   2.464       .  S
Zr674       O680   2.395       .  S
Zr674       O681   2.405       .  S
Zr675       O677   2.436       .  S
Zr675       O699   2.437       .  S
Zr675       O701   2.456       .  S
Zr675       O679   2.391       .  S
Zr675       O682   2.406       .  S
Zr676       O702   2.436       .  S
Zr676       O703   2.435       .  S
Zr676       O678   2.443       .  S
Zr676       O679   2.381       .  S
Zr676       O680   2.363       .  S
O677        H714   0.990       .  S
O678        H709   0.990       .  S
O678        H723   0.990       .  S
O680        H706   0.961       .  S
O681       Zr691   2.388       .  S
O682       Zr691   2.373       .  S
O682        H707   0.966       .  S
C683       C1118   1.487       .  S
C684       C1108   1.484       .  S
C685       C1351   1.499       .  S
O686        H722   0.990       .  S
O687        C689   1.290       .  A
O688        C689   1.285       .  A
C689       C1431   1.483       .  S
O690       Zr691   2.438       .  S
O690        H719   0.990       .  S
Zr691       O694   2.437       .  S
Zr691       O695   2.439       .  S
Zr691       O696   2.429       .  S
O692        C697   1.282       .  A
O693        H710   0.990       .  S
O693        H725   0.990       .  S
O694        H711   0.990       .  S
O695        H715   0.990       .  S
O695        H724   0.989       .  S
O696        C697   1.281       .  A
C697       C1398   1.487       .  S
O698        H717   0.990       .  S
O698        H721   0.991       .  S
O699        H713   0.990       .  S
O699        H720   0.990       .  S
O700        C704   1.282       .  A
O701        C704   1.288       .  A
O702        H712   0.990       .  S
O703        H716   0.990       .  S
C704       C1211   1.486       .  S
Zr727       O728   2.442       .  S
Zr727       O729   2.494       .  S
Zr727       O730   2.461       .  S
Zr727       O733   2.482       .  S
Zr727       O735   2.386       .  S
Zr727       O736   2.389       .  S
Zr727       O737   2.433       .  S
Zr727       O738   2.397       .  S
O728        H784   0.990       .  S
O728        H792   0.991       .  S
O729        C749   1.295       .  A
O730        C751   1.287       .  A
O731       Zr741   2.435       .  S
O731        C750   1.286       .  A
O732       Zr740   2.414       .  S
O732        C751   1.282       .  A
O733        C750   1.294       .  A
O734       Zr742   2.378       .  S
O734        C749   1.273       .  A
O735       Zr740   2.405       .  S
O735       Zr742   2.377       .  S
O736       Zr741   2.387       .  S
O736       Zr742   2.394       .  S
O736        H771   0.965       .  S
O737       Zr740   2.407       .  S
O737       Zr757   2.407       .  S
O737        H774   0.965       .  S
O738       Zr741   2.379       .  S
O738       Zr757   2.387       .  S
Zr739       O764   2.442       .  S
Zr739       O758   2.429       .  S
Zr739       O766   2.410       .  S
Zr739       O754   2.430       .  S
Zr739       O745   2.391       .  S
Zr739       O746   2.396       .  S
Zr739       O747   2.373       .  S
Zr739       O748   2.377       .  S
Zr740       O759   2.435       .  S
Zr740       O752   2.435       .  S
Zr740       O753   2.451       .  S
Zr740       O746   2.393       .  S
Zr740       O747   2.391       .  S
Zr741       O743   2.436       .  S
Zr741       O765   2.439       .  S
Zr741       O767   2.421       .  S
Zr741       O745   2.386       .  S
Zr741       O748   2.401       .  S
Zr742       O768   2.435       .  S
Zr742       O769   2.434       .  S
Zr742       O744   2.437       .  S
Zr742       O745   2.379       .  S
Zr742       O746   2.370       .  S
O743        H780   0.990       .  S
O744        H775   0.990       .  S
O744        H789   0.990       .  S
O746        H772   0.964       .  S
O747       Zr757   2.373       .  S
O748       Zr757   2.379       .  S
O748        H773   0.966       .  S
C749       C1121   1.485       .  S
C750       C1158   1.492       .  S
C751       C1218   1.473       .  S
O752        H788   0.990       .  S
O753        C755   1.287       .  A
O754        C755   1.284       .  A
C755       C1098   1.486       .  S
O756       Zr757   2.438       .  S
O756        H785   0.990       .  S
Zr757       O760   2.436       .  S
Zr757       O761   2.441       .  S
Zr757       O762   2.433       .  S
O758        C763   1.283       .  A
O759        H776   0.990       .  S
O759        H791   0.990       .  S
O760        H777   0.990       .  S
O761        H781   0.990       .  S
O761        H790   0.990       .  S
O762        C763   1.283       .  A
C763       C1138   1.484       .  S
O764        H783   0.990       .  S
O764        H787   0.990       .  S
O765        H779   0.990       .  S
O765        H786   0.990       .  S
O766        C770   1.282       .  A
O767        C770   1.280       .  A
O768        H778   0.989       .  S
O769        H782   0.990       .  S
C770       C1481   1.458       .  S
Zr793       O794   2.440       .  S
Zr793       O795   2.499       .  S
Zr793       O796   2.479       .  S
Zr793       O799   2.495       .  S
Zr793       O801   2.391       .  S
Zr793       O802   2.391       .  S
Zr793       O803   2.433       .  S
Zr793       O804   2.397       .  S
O794        H850   0.990       .  S
O794        H858   0.990       .  S
O795        C815   1.295       .  A
O796        C817   1.291       .  A
O797       Zr807   2.430       .  S
O797        C816   1.284       .  A
O798       Zr806   2.414       .  S
O798        C817   1.281       .  A
O799        C816   1.297       .  A
O800       Zr808   2.373       .  S
O800        C815   1.271       .  A
O801       Zr806   2.408       .  S
O801       Zr808   2.378       .  S
O802       Zr807   2.397       .  S
O802       Zr808   2.394       .  S
O802        H837   0.965       .  S
O803       Zr806   2.406       .  S
O803       Zr823   2.407       .  S
O803        H840   0.965       .  S
O804       Zr807   2.380       .  S
O804       Zr823   2.388       .  S
Zr805       O830   2.443       .  S
Zr805       O824   2.425       .  S
Zr805       O832   2.420       .  S
Zr805       O820   2.439       .  S
Zr805       O811   2.385       .  S
Zr805       O812   2.401       .  S
Zr805       O813   2.376       .  S
Zr805       O814   2.383       .  S
Zr806       O825   2.439       .  S
Zr806       O818   2.434       .  S
Zr806       O819   2.458       .  S
Zr806       O812   2.396       .  S
Zr806       O813   2.392       .  S
Zr807       O809   2.439       .  S
Zr807       O831   2.438       .  S
Zr807       O833   2.428       .  S
Zr807       O811   2.384       .  S
Zr807       O814   2.394       .  S
Zr808       O834   2.435       .  S
Zr808       O835   2.435       .  S
Zr808       O810   2.441       .  S
Zr808       O811   2.373       .  S
Zr808       O812   2.372       .  S
O809        H846   0.990       .  S
O810        H841   0.990       .  S
O810        H855   0.990       .  S
O812        H838   0.964       .  S
O813       Zr823   2.378       .  S
O814       Zr823   2.387       .  S
O814        H839   0.966       .  S
C815       C1091   1.484       .  S
C816       C1261   1.500       .  S
C817       C1531   1.478       .  S
O818        H854   0.990       .  S
O819        C821   1.289       .  A
O820        C821   1.284       .  A
C821       C1078   1.484       .  S
O822       Zr823   2.440       .  S
O822        H851   0.990       .  S
Zr823       O826   2.437       .  S
Zr823       O827   2.439       .  S
Zr823       O828   2.431       .  S
O824        C829   1.282       .  A
O825        H842   0.990       .  S
O825        H857   0.990       .  S
O826        H843   0.990       .  S
O827        H847   0.990       .  S
O827        H856   0.990       .  S
O828        C829   1.282       .  A
C829       C1291   1.481       .  S
O830        H849   0.991       .  S
O830        H853   0.990       .  S
O831        H845   0.990       .  S
O831        H852   0.990       .  S
O832        C836   1.283       .  A
O833        C836   1.282       .  A
O834        H844   0.990       .  S
O835        H848   0.990       .  S
C836       C1148   1.475       .  S
Zr859       O860   2.439       .  S
Zr859       O861   2.494       .  S
Zr859       O862   2.486       .  S
Zr859       O865   2.469       .  S
Zr859       O867   2.380       .  S
Zr859       O868   2.391       .  S
Zr859       O869   2.424       .  S
Zr859       O870   2.432       .  S
O860        H916   0.990       .  S
O860        H924   0.990       .  S
O861        C881   1.294       .  A
O862        C883   1.295       .  A
O863       Zr873   2.440       .  S
O863        C882   1.286       .  A
O864       Zr872   2.428       .  S
O864        C883   1.284       .  A
O865        C882   1.290       .  A
O866       Zr874   2.373       .  S
O866        C881   1.271       .  A
O867       Zr872   2.399       .  S
O867       Zr874   2.394       .  S
O868       Zr873   2.395       .  S
O868       Zr874   2.376       .  S
O868        H903   0.965       .  S
O869       Zr872   2.405       .  S
O869       Zr889   2.383       .  S
O869        H906   0.946       .  S
O870       Zr873   2.395       .  S
O870       Zr889   2.411       .  S
Zr871       O896   2.442       .  S
Zr871       O890   2.422   1_554  S
Zr871       O898   2.415   1_554  S
Zr871       O886   2.429       .  S
Zr871       O877   2.402       .  S
Zr871       O878   2.390       .  S
Zr871       O879   2.368       .  S
Zr871       O880   2.384       .  S
Zr872       O891   2.438       .  S
Zr872       O884   2.433       .  S
Zr872       O885   2.437       .  S
Zr872       O878   2.393       .  S
Zr872       O879   2.394       .  S
Zr873       O875   2.435   1_554  S
Zr873       O897   2.439   1_554  S
Zr873       O899   2.440   1_554  S
Zr873       O877   2.397       .  S
Zr873       O880   2.399       .  S
Zr874       O900   2.437       .  S
Zr874       O901   2.437       .  S
Zr874       O876   2.438       .  S
Zr874       O877   2.380       .  S
Zr874       O878   2.369       .  S
O875        H912   0.989       .  S
O876        H907   0.990       .  S
O876        H921   0.990       .  S
O878        H904   0.965       .  S
O879       Zr889   2.378       .  S
O880       Zr889   2.365       .  S
O880        H905   0.967   1_554  S
C881       C1088   1.487       .  S
C882       C1068   1.491       .  S
C883       C1111   1.503       .  S
O884        H920   0.990       .  S
O885        C887   1.284       .  A
O886        C887   1.284       .  A
C887       C1131   1.463       .  S
O888       Zr889   2.438       .  S
O888        H917   0.990       .  S
Zr889       O892   2.437       .  S
Zr889       O893   2.442   1_554  S
Zr889       O894   2.443       .  S
O890        C895   1.282       .  A
O891        H908   0.990       .  S
O891        H923   0.990       .  S
O892        H909   0.990       .  S
O893        H913   0.990       .  S
O893        H922   0.990       .  S
O894        C895   1.285   1_554  A
C895       C1101   1.496       .  S
O896        H915   0.991   1_554  S
O896        H919   0.990       .  S
O897        H911   0.990       .  S
O897        H918   0.990   1_556  S
O898        C902   1.282       .  A
O899        C902   1.286       .  A
O900        H910   0.990       .  S
O901        H914   0.990       .  S
C902       C1521   1.477       .  S
Zr925       O926   2.442       .  S
Zr925       O927   2.487       .  S
Zr925       O928   2.460       .  S
Zr925       O931   2.470       .  S
Zr925       O933   2.389       .  S
Zr925       O934   2.388       .  S
Zr925       O935   2.436       .  S
Zr925       O936   2.399       .  S
O926        H982   0.990       .  S
O926        H990   0.990       .  S
O927        C947   1.293       .  A
O928        C949   1.287       .  A
O929       Zr939   2.427       .  S
O929        C948   1.284       .  A
O930       Zr938   2.423       .  S
O930        C949   1.282       .  A
O931        C948   1.292       .  A
O932       Zr940   2.389       .  S
O932        C947   1.275       .  A
O933       Zr938   2.406       .  S
O933       Zr940   2.388       .  S
O934       Zr939   2.387       .  S
O934       Zr940   2.385       .  S
O934        H969   0.966       .  S
O935       Zr938   2.404       .  S
O935       Zr955   2.414       .  S
O935        H972   0.964       .  S
O936       Zr939   2.376       .  S
O936       Zr955   2.389       .  S
Zr937       O962   2.442       .  S
Zr937       O956   2.424       .  S
Zr937       O964   2.413       .  S
Zr937       O952   2.423       .  S
Zr937       O943   2.391       .  S
Zr937       O944   2.401       .  S
Zr937       O945   2.376       .  S
Zr937       O946   2.377       .  S
Zr938       O957   2.437       .  S
Zr938       O950   2.435       .  S
Zr938       O951   2.449       .  S
Zr938       O944   2.398       .  S
Zr938       O945   2.396       .  S
Zr939       O941   2.434       .  S
Zr939       O963   2.440       .  S
Zr939       O965   2.422       .  S
Zr939       O943   2.384       .  S
Zr939       O946   2.399       .  S
Zr940       O966   2.434   1_455  S
Zr940       O967   2.436   1_455  S
Zr940       O942   2.437   1_455  S
Zr940       O943   2.379       .  S
Zr940       O944   2.378       .  S
O941        H978   0.990       .  S
O942        H973   0.990       .  S
O942        H987   0.990       .  S
O944        H970   0.965       .  S
O945       Zr955   2.376       .  S
O946       Zr955   2.377       .  S
O946        H971   0.967       .  S
C947       C1061   1.489       .  S
C948       C1201   1.483       .  S
C949       C1188   1.475       .  S
O950        H986   0.990       .  S
O951        C953   1.287       .  A
O952        C953   1.282       .  A
C953       C1371   1.484       .  S
O954       Zr955   2.439       .  S
O954        H983   0.990       .  S
Zr955       O958   2.436       .  S
Zr955       O959   2.440       .  S
Zr955       O960   2.456       .  S
O956        C961   1.282       .  A
O957        H974   0.990       .  S
O957        H989   0.990       .  S
O958        H975   0.990       .  S
O959        H979   0.990       .  S
O959        H988   0.990       .  S
O960        C961   1.287       .  A
C961       C1228   1.495       .  S
O962        H981   0.990   1_455  S
O962        H985   0.990       .  S
O963        H977   0.990       .  S
O963        H984   0.990       .  S
O964        C968   1.281       .  A
O965        C968   1.281       .  A
O966        H976   0.990   1_655  S
O967        H980   0.990       .  S
C968       C1251   1.457       .  S
Zr991       O992   2.441       .  S
Zr991       O993   2.496       .  S
Zr991       O994   2.478       .  S
Zr991       O997   2.474       .  S
Zr991       O999   2.379       .  S
Zr991      O1000   2.391       .  S
Zr991      O1001   2.429       .  S
Zr991      O1002   2.430       .  S
O992       H1048   0.990       .  S
O992       H1056   0.990       .  S
O993       C1013   1.294       .  A
O994       C1015   1.293       .  A
O995      Zr1005   2.417       .  S
O995       C1014   1.283       .  A
O996      Zr1004   2.465       .  S
O996       C1015   1.291       .  A
O997       C1014   1.291       .  A
O998      Zr1006   2.375       .  S
O998       C1013   1.272       .  A
O999      Zr1004   2.404       .  S
O999      Zr1006   2.396       .  S
O1000     Zr1005   2.403       .  S
O1000     Zr1006   2.373       .  S
O1000      H1035   0.965       .  S
O1001     Zr1004   2.407       .  S
O1001     Zr1021   2.381       .  S
O1001      H1038   0.961       .  S
O1002     Zr1005   2.396       .  S
O1002     Zr1021   2.413       .  S
Zr1003     O1028   2.444       .  S
Zr1003     O1022   2.424       .  S
Zr1003     O1030   2.421       .  S
Zr1003     O1018   2.421       .  S
Zr1003     O1009   2.393       .  S
Zr1003     O1010   2.407       .  S
Zr1003     O1011   2.368       .  S
Zr1003     O1012   2.383       .  S
Zr1004     O1023   2.437       .  S
Zr1004     O1016   2.435       .  S
Zr1004     O1017   2.458       .  S
Zr1004     O1010   2.409       .  S
Zr1004     O1011   2.404       .  S
Zr1005     O1007   2.437       .  S
Zr1005     O1029   2.437       .  S
Zr1005     O1031   2.447       .  S
Zr1005     O1009   2.382       .  S
Zr1005     O1012   2.405       .  S
Zr1006     O1032   2.437   1_655  S
Zr1006     O1033   2.438   1_655  S
Zr1006     O1008   2.437   1_655  S
Zr1006     O1009   2.371       .  S
Zr1006     O1010   2.371       .  S
O1007      H1044   0.990       .  S
O1008      H1039   0.990       .  S
O1008      H1053   0.990       .  S
O1010      H1036   0.963       .  S
O1011     Zr1021   2.380       .  S
O1012     Zr1021   2.372       .  S
O1012      H1037   0.966       .  S
C1013      C1058   1.489       .  S
C1014      C1381   1.485       .  S
C1015      C1071   1.505   1_556  S
O1016      H1052   0.990       .  S
O1017      C1019   1.288       .  A
O1018      C1019   1.282       .  A
C1019      C1281   1.475       .  S
O1020     Zr1021   2.440       .  S
O1020      H1049   0.990       .  S
Zr1021     O1024   2.437       .  S
Zr1021     O1025   2.439       .  S
Zr1021     O1026   2.450       .  S
O1022      C1027   1.280       .  A
O1023      H1040   0.990       .  S
O1023      H1055   0.990       .  S
O1024      H1041   0.989       .  S
O1025      H1045   0.990       .  S
O1025      H1054   0.990       .  S
O1026      C1027   1.286       .  A
C1027      C1081   1.494       .  S
O1028      H1047   0.990       .  S
O1028      H1051   0.990       .  S
O1029      H1043   0.990       .  S
O1029      H1050   0.990       .  S
O1030      C1034   1.283       .  A
O1031      C1034   1.285       .  A
O1032      H1042   0.990       .  S
O1033      H1046   0.990       .  S
C1034      C1178   1.475       .  S
C1057      C1058   1.404   1_554  A
C1057      C1062   1.404       .  A
C1057      F1064   1.357       .  S
C1058      C1059   1.414   1_655  A
C1059      C1060   1.402   1_556  A
C1059      F1066   1.358       .  S
C1060      C1061   1.405       .  A
C1060      F1065   1.358       .  S
C1061      C1062   1.414   1_455  A
C1062      F1063   1.358       .  S
C1067      C1068   1.404       .  A
C1067      C1072   1.405   1_554  A
C1067      F1074   1.358   1_554  S
C1068      C1069   1.407       .  A
C1069      C1070   1.411       .  A
C1069      F1076   1.357       .  S
C1070      C1071   1.414       .  A
C1070      F1075   1.357       .  S
C1071      C1072   1.415   1_554  A
C1072      F1073   1.357       .  S
C1077      C1078   1.409       .  A
C1077      C1082   1.407       .  A
C1077      F1084   1.358       .  S
C1078      C1079   1.405       .  A
C1079      C1080   1.400       .  A
C1079      F1086   1.358       .  S
C1080      C1081   1.413       .  A
C1080      F1085   1.359       .  S
C1081      C1082   1.409       .  A
C1082      F1083   1.357       .  S
C1087      C1088   1.405       .  A
C1087      C1092   1.405       .  A
C1087      F1094   1.358       .  S
C1088      C1089   1.414       .  A
C1089      C1090   1.400       .  A
C1089      F1096   1.358       .  S
C1090      C1091   1.401       .  A
C1090      F1095   1.358       .  S
C1091      C1092   1.415       .  A
C1092      F1093   1.358       .  S
C1097      C1098   1.406       .  A
C1097      C1102   1.397       .  A
C1097      F1104   1.359       .  S
C1098      C1099   1.408       .  A
C1099      C1100   1.405       .  A
C1099      F1106   1.358       .  S
C1100      C1101   1.413       .  A
C1100      F1105   1.358       .  S
C1101      C1102   1.413       .  A
C1102      F1103   1.358       .  S
C1107      C1108   1.401       .  A
C1107      C1112   1.403       .  A
C1107      F1114   1.358       .  S
C1108      C1109   1.405       .  A
C1109      C1110   1.407       .  A
C1109      F1116   1.357       .  S
C1110      C1111   1.414       .  A
C1110      F1115   1.357       .  S
C1111      C1112   1.418       .  A
C1112      F1113   1.358       .  S
C1117      C1118   1.414       .  A
C1117      C1122   1.401       .  A
C1117      F1124   1.358       .  S
C1118      C1119   1.404       .  A
C1119      C1120   1.404       .  A
C1119      F1126   1.358       .  S
C1120      C1121   1.414       .  A
C1120      F1125   1.358       .  S
C1121      C1122   1.403       .  A
C1122      F1123   1.358       .  S
C1127      C1128   1.404       .  A
C1127      C1132   1.403       .  A
C1127      F1134   1.357       .  S
C1128      C1129   1.408       .  A
C1129      C1130   1.393       .  A
C1129      F1136   1.358       .  S
C1130      C1131   1.398       .  A
C1130      F1135   1.358       .  S
C1131      C1132   1.407       .  A
C1132      F1133   1.358       .  S
C1137      C1138   1.409       .  A
C1137      C1142   1.396       .  A
C1137      F1144   1.358       .  S
C1138      C1139   1.411       .  A
C1139      C1140   1.402       .  A
C1139      F1146   1.357       .  S
C1140      C1141   1.404       .  A
C1140      F1145   1.358       .  S
C1141      C1142   1.403       .  A
C1142      F1143   1.359       .  S
C1147      C1148   1.409       .  A
C1147      C1152   1.385       .  A
C1147      F1154   1.358       .  S
C1148      C1149   1.410       .  A
C1149      C1150   1.400   1_655  A
C1149      F1156   1.357       .  S
C1150      C1151   1.403       .  A
C1150      F1155   1.358       .  S
C1151      C1152   1.397   1_455  A
C1152      F1153   1.357       .  S
C1157      C1158   1.410       .  A
C1157      C1162   1.404       .  A
C1157      F1164   1.358       .  S
C1158      C1159   1.413       .  A
C1159      C1160   1.404       .  A
C1159      F1166   1.357       .  S
C1160      C1161   1.402       .  A
C1160      F1165   1.357       .  S
C1161      C1162   1.408       .  A
C1162      F1163   1.359       .  S
C1167      C1168   1.419       .  A
C1167      C1172   1.398       .  A
C1167      F1174   1.359       .  S
C1168      C1169   1.404       .  A
C1169      C1170   1.399       .  A
C1169      F1176   1.357       .  S
C1170      C1171   1.415       .  A
C1170      F1175   1.358       .  S
C1171      C1172   1.402       .  A
C1172      F1173   1.359       .  S
C1177      C1178   1.402       .  A
C1177      C1182   1.390   1_655  A
C1177      F1184   1.358       .  S
C1178      C1179   1.408   1_655  A
C1179      C1180   1.407       .  A
C1179      F1186   1.358       .  S
C1180      C1181   1.411       .  A
C1180      F1185   1.358       .  S
C1181      C1182   1.407       .  A
C1182      F1183   1.356       .  S
C1187      C1188   1.402       .  A
C1187      C1192   1.403       .  A
C1187      F1194   1.358       .  S
C1188      C1189   1.404       .  A
C1189      C1190   1.398       .  A
C1189      F1196   1.358       .  S
C1190      C1191   1.407       .  A
C1190      F1195   1.358       .  S
C1191      C1192   1.415       .  A
C1192      F1193   1.358       .  S
C1197      C1198   1.403   1_556  A
C1197      C1202   1.403   1_556  A
C1197      F1204   1.357       .  S
C1198      C1199   1.408       .  A
C1199      C1200   1.400       .  A
C1199      F1206   1.359       .  S
C1200      C1201   1.407       .  A
C1200      F1205   1.358       .  S
C1201      C1202   1.410       .  A
C1202      F1203   1.358   1_554  S
C1207      C1208   1.411       .  A
C1207      C1212   1.409       .  A
C1207      F1214   1.357       .  S
C1208      C1209   1.411       .  A
C1209      C1210   1.396       .  A
C1209      F1216   1.358       .  S
C1210      C1211   1.406       .  A
C1210      F1215   1.359       .  S
C1211      C1212   1.408       .  A
C1212      F1213   1.357       .  S
C1217      C1218   1.401       .  A
C1217      C1222   1.402       .  A
C1217      F1224   1.358       .  S
C1218      C1219   1.404       .  A
C1219      C1220   1.400       .  A
C1219      F1226   1.359       .  S
C1220      C1221   1.411       .  A
C1220      F1225   1.358       .  S
C1221      C1222   1.414       .  A
C1222      F1223   1.358       .  S
C1227      C1228   1.412       .  A
C1227      C1232   1.409       .  A
C1227      F1234   1.357       .  S
C1228      C1229   1.412       .  A
C1229      C1230   1.397       .  A
C1229      F1236   1.358       .  S
C1230      C1231   1.405       .  A
C1230      F1235   1.359       .  S
C1231      C1232   1.407       .  A
C1232      F1233   1.358       .  S
C1237      C1238   1.400       .  A
C1237      C1242   1.395       .  A
C1237      F1244   1.358       .  S
C1238      C1239   1.416       .  A
C1239      C1240   1.400       .  A
C1239      F1246   1.358       .  S
C1240      C1241   1.403       .  A
C1240      F1245   1.358       .  S
C1241      C1242   1.417       .  A
C1242      F1243   1.358       .  S
C1247      C1248   1.405       .  A
C1247      C1252   1.399   1_655  A
C1247      F1254   1.358       .  S
C1248      C1249   1.408   1_655  A
C1249      C1250   1.391       .  A
C1249      F1256   1.359       .  S
C1250      C1251   1.399       .  A
C1250      F1255   1.359       .  S
C1251      C1252   1.404       .  A
C1252      F1253   1.358   1_455  S
C1257      C1258   1.403       .  A
C1257      C1262   1.407       .  A
C1257      F1264   1.358       .  S
C1258      C1259   1.405       .  A
C1259      C1260   1.404       .  A
C1259      F1266   1.358   1_545  S
C1260      C1261   1.411       .  A
C1260      F1265   1.357       .  S
C1261      C1262   1.417       .  A
C1262      F1263   1.358       .  S
C1267      C1268   1.410       .  A
C1267      C1272   1.406       .  A
C1267      F1274   1.357       .  S
C1268      C1269   1.413       .  A
C1269      C1270   1.397   1_455  A
C1269      F1276   1.359       .  S
C1270      C1271   1.404       .  A
C1270      F1275   1.358       .  S
C1271      C1272   1.409   1_655  A
C1272      F1273   1.358       .  S
C1277      C1278   1.406   1_655  A
C1277      C1282   1.403       .  A
C1277      F1284   1.358       .  S
C1278      C1279   1.396       .  A
C1279      C1280   1.390       .  A
C1279      F1286   1.359       .  S
C1280      C1281   1.411   1_455  A
C1280      F1285   1.358       .  S
C1281      C1282   1.406       .  A
C1282      F1283   1.357       .  S
C1287      C1288   1.406   1_655  A
C1287      C1292   1.403       .  A
C1287      F1294   1.357       .  S
C1288      C1289   1.406       .  A
C1289      C1290   1.395   1_455  A
C1289      F1296   1.359       .  S
C1290      C1291   1.408       .  A
C1290      F1295   1.359       .  S
C1291      C1292   1.409       .  A
C1292      F1293   1.358       .  S
C1297      C1298   1.402       .  A
C1297      C1302   1.400       .  A
C1297      F1304   1.358       .  S
C1298      C1299   1.406       .  A
C1299      C1300   1.411       .  A
C1299      F1306   1.358       .  S
C1300      C1301   1.415       .  A
C1300      F1305   1.358       .  S
C1301      C1302   1.411       .  A
C1302      F1303   1.357       .  S
C1307      C1308   1.413   1_655  A
C1307      C1312   1.393   1_556  A
C1307      F1314   1.359       .  S
C1308      C1309   1.403   1_566  A
C1309      C1310   1.401   1_545  A
C1309      F1316   1.358       .  S
C1310      C1311   1.414   1_455  A
C1310      F1315   1.358       .  S
C1311      C1312   1.402       .  A
C1312      F1313   1.358       .  S
C1317      C1318   1.413       .  A
C1317      C1322   1.393       .  A
C1317      F1324   1.359       .  S
C1318      C1319   1.409       .  A
C1319      C1320   1.403       .  A
C1319      F1326   1.357       .  S
C1320      C1321   1.408       .  A
C1320      F1325   1.357       .  S
C1321      C1322   1.405       .  A
C1322      F1323   1.359       .  S
C1327      C1328   1.414       .  A
C1327      C1332   1.407       .  A
C1327      F1334   1.357       .  S
C1328      C1329   1.415   1_554  A
C1329      C1330   1.403   1_556  A
C1329      F1336   1.357       .  S
C1330      C1331   1.403       .  A
C1330      F1335   1.359   1_554  S
C1331      C1332   1.404       .  A
C1332      F1333   1.358       .  S
C1337      C1338   1.402   1_455  A
C1337      C1342   1.402       .  A
C1337      F1344   1.358       .  S
C1338      C1339   1.409       .  A
C1339      C1340   1.395       .  A
C1339      F1346   1.358       .  S
C1340      C1341   1.398   1_655  A
C1340      F1345   1.358       .  S
C1341      C1342   1.407       .  A
C1342      F1343   1.358       .  S
C1347      C1348   1.403       .  A
C1347      C1352   1.402       .  A
C1347      F1354   1.358       .  S
C1348      C1349   1.405       .  A
C1349      C1350   1.408       .  A
C1349      F1356   1.357       .  S
C1350      C1351   1.414       .  A
C1350      F1355   1.358       .  S
C1351      C1352   1.414       .  A
C1352      F1353   1.357       .  S
C1357      C1358   1.405       .  A
C1357      C1362   1.390       .  A
C1357      F1364   1.360       .  S
C1358      C1359   1.404       .  A
C1359      C1360   1.403       .  A
C1359      F1366   1.357       .  S
C1360      C1361   1.411       .  A
C1360      F1365   1.357       .  S
C1361      C1362   1.412       .  A
C1362      F1363   1.359       .  S
C1367      C1368   1.411       .  A
C1367      C1372   1.407       .  A
C1367      F1374   1.357       .  S
C1368      C1369   1.414       .  A
C1369      C1370   1.395   1_655  A
C1369      F1376   1.358       .  S
C1370      C1371   1.405       .  A
C1370      F1375   1.359       .  S
C1371      C1372   1.409   1_455  A
C1372      F1373   1.358       .  S
C1377      C1378   1.412       .  A
C1377      C1382   1.410       .  A
C1377      F1384   1.358       .  S
C1378      C1379   1.411       .  A
C1379      C1380   1.399       .  A
C1379      F1386   1.358       .  S
C1380      C1381   1.404       .  A
C1380      F1385   1.358       .  S
C1381      C1382   1.407       .  A
C1382      F1383   1.357       .  S
C1387      C1388   1.405       .  A
C1387      C1392   1.399       .  A
C1387      F1394   1.358       .  S
C1388      C1389   1.408       .  A
C1389      C1390   1.390       .  A
C1389      F1396   1.358       .  S
C1390      C1391   1.399       .  A
C1390      F1395   1.358       .  S
C1391      C1392   1.404       .  A
C1392      F1393   1.357       .  S
C1397      C1398   1.409       .  A
C1397      C1402   1.395       .  A
C1397      F1404   1.359       .  S
C1398      C1399   1.411       .  A
C1399      C1400   1.405       .  A
C1399      F1406   1.357       .  S
C1400      C1401   1.405       .  A
C1400      F1405   1.358       .  S
C1401      C1402   1.406       .  A
C1402      F1403   1.359       .  S
C1407      C1408   1.399       .  A
C1407      C1412   1.401   1_556  A
C1407      F1414   1.358       .  S
C1408      C1409   1.405   1_556  A
C1409      C1410   1.405       .  A
C1409      F1416   1.358       .  S
C1410      C1411   1.413       .  A
C1410      F1415   1.358       .  S
C1411      C1412   1.417       .  A
C1412      F1413   1.358   1_554  S
C1417      C1418   1.410       .  A
C1417      C1422   1.397       .  A
C1417      F1424   1.359       .  S
C1418      C1419   1.403       .  A
C1419      C1420   1.401       .  A
C1419      F1426   1.358       .  S
C1420      C1421   1.414       .  A
C1420      F1425   1.358       .  S
C1421      C1422   1.405       .  A
C1422      F1423   1.358       .  S
C1427      C1428   1.408       .  A
C1427      C1432   1.406       .  A
C1427      F1434   1.358       .  S
C1428      C1429   1.400       .  A
C1429      C1430   1.395       .  A
C1429      F1436   1.358       .  S
C1430      C1431   1.412       .  A
C1430      F1435   1.358       .  S
C1431      C1432   1.406       .  A
C1432      F1433   1.357       .  S
C1437      C1438   1.411       .  A
C1437      C1442   1.410       .  A
C1437      F1444   1.358       .  S
C1438      C1439   1.412       .  A
C1439      C1440   1.405       .  A
C1439      F1446   1.358       .  S
C1440      C1441   1.406       .  A
C1440      F1445   1.358   1_545  S
C1441      C1442   1.408       .  A
C1442      F1443   1.357       .  S
C1447      C1448   1.405       .  A
C1447      C1452   1.403       .  A
C1447      F1454   1.358       .  S
C1448      C1449   1.406       .  A
C1449      C1450   1.397       .  A
C1449      F1456   1.358       .  S
C1450      C1451   1.410       .  A
C1450      F1455   1.358       .  S
C1451      C1452   1.413       .  A
C1452      F1453   1.358       .  S
C1457      C1458   1.414       .  A
C1457      C1462   1.395       .  A
C1457      F1464   1.358       .  S
C1458      C1459   1.408       .  A
C1459      C1460   1.401       .  A
C1459      F1466   1.358       .  S
C1460      C1461   1.407       .  A
C1460      F1465   1.358       .  S
C1461      C1462   1.400       .  A
C1462      F1463   1.358       .  S
C1467      C1468   1.411       .  A
C1467      C1472   1.408       .  A
C1467      F1474   1.358       .  S
C1468      C1469   1.410       .  A
C1469      C1470   1.404       .  A
C1469      F1476   1.358       .  S
C1470      C1471   1.407       .  A
C1470      F1475   1.358       .  S
C1471      C1472   1.407       .  A
C1472      F1473   1.357       .  S
C1477      C1478   1.409       .  A
C1477      C1482   1.386       .  A
C1477      F1484   1.358       .  S
C1478      C1479   1.409       .  A
C1479      C1480   1.403       .  A
C1479      F1486   1.358       .  S
C1480      C1481   1.405       .  A
C1480      F1485   1.358       .  S
C1481      C1482   1.396       .  A
C1482      F1483   1.359       .  S
C1487      C1488   1.404       .  A
C1487      C1492   1.396       .  A
C1487      F1494   1.359       .  S
C1488      C1489   1.406       .  A
C1489      C1490   1.403       .  A
C1489      F1496   1.358       .  S
C1490      C1491   1.411       .  A
C1490      F1495   1.358       .  S
C1491      C1492   1.412       .  A
C1492      F1493   1.358       .  S
C1497      C1498   1.417       .  A
C1497      C1502   1.402       .  A
C1497      F1504   1.358       .  S
C1498      C1499   1.413       .  A
C1499      C1500   1.407       .  A
C1499      F1506   1.358       .  S
C1500      C1501   1.407       .  A
C1500      F1505   1.358       .  S
C1501      C1502   1.400       .  A
C1502      F1503   1.358       .  S
C1507      C1508   1.416   1_565  A
C1507      C1512   1.402       .  A
C1507      F1514   1.358       .  S
C1508      C1509   1.402       .  A
C1509      C1510   1.400   1_545  A
C1509      F1516   1.358       .  S
C1510      C1511   1.416       .  A
C1510      F1515   1.358       .  S
C1511      C1512   1.403       .  A
C1512      F1513   1.358       .  S
C1517      C1518   1.414       .  A
C1517      C1522   1.393       .  A
C1517      F1524   1.359       .  S
C1518      C1519   1.410       .  A
C1519      C1520   1.404       .  A
C1519      F1526   1.357       .  S
C1520      C1521   1.407       .  A
C1520      F1525   1.358       .  S
C1521      C1522   1.404       .  A
C1522      F1523   1.359       .  S
C1527      C1528   1.416       .  A
C1527      C1532   1.405       .  A
C1527      F1534   1.358       .  S
C1528      C1529   1.411       .  A
C1529      C1530   1.402       .  A
C1529      F1536   1.358       .  S
C1530      C1531   1.406       .  A
C1530      F1535   1.358       .  S
C1531      C1532   1.401       .  A
C1532      F1533   1.358       .  S
