geometry optimzed in LAMMPS
_audit_creation_date              2020-12-01 
_audit_creation_method            'lammps2cif' 
_symmetry_space_group_name_H-M    'P1' 
_symmetry_Int_Tables_number       1 
_symmetry_cell_setting            triclinic 
loop_ 
_symmetry_equiv_pos_as_xyz 
  x,y,z 
_cell_length_a                    57.10098265 
_cell_length_b                    56.647799134471576 
_cell_length_c                    31.0076980734817 
_cell_angle_alpha                 89.94602876187862 
_cell_angle_beta                  90.31637347538783 
_cell_angle_gamma                 89.80030253350735 
loop_ 
_atom_site_label 
_atom_site_type_symbol 
_atom_site_fract_x 
_atom_site_fract_y 
_atom_site_fract_z 
_atom_site_charge 
Zr1        Zr  0.90823491  0.38872341  0.38277565     2.17500
O2          O  0.93250090  0.41633761  0.34243717    -0.51600
O3          O  0.89991200  0.37833304  0.30662715    -0.74800
O4          O  0.95025332  0.37845034  0.38534782    -0.81600
O5          O  0.85796238  0.43259910  0.39483533    -0.83300
O6          O  0.95595825  0.34492702  0.42448594    -0.78900
O7          O  0.89688297  0.43060517  0.38006351    -0.90600
O8          O  0.87593759  0.34657768  0.30306536    -0.76500
O9          O  0.90646773  0.34669637  0.38609980    -0.86000
O10         O  0.86797198  0.37886526  0.37224652    -0.85700
O11         O  0.92190388  0.37821354  0.45426037    -0.72500
O12         O  0.88675991  0.40699686  0.44021982    -0.84600
Zr13       Zr  0.85793286  0.34384961  0.50456648     2.26400
Zr14       Zr  0.91892350  0.33597377  0.45751875     2.06300
Zr15       Zr  0.84681143  0.39637025  0.43051847     2.10000
Zr16       Zr  0.86633938  0.33682868  0.37607402     1.78800
O17         O  0.82950754  0.42561460  0.47836645    -0.93400
O18         O  0.88525793  0.30180377  0.34645211    -0.41200
O19         O  0.84507134  0.35443538  0.43352068    -0.77900
O20         O  0.87899444  0.32487472  0.44626807    -0.96600
O21         O  0.89789708  0.35431507  0.51492466    -0.89900
O22         O  0.85925558  0.38593024  0.50206243    -0.92700
C23         C  0.88791710  0.36286187  0.28538230     1.01100
C24         C  0.87729328  0.44185591  0.38263067     1.14000
C25         C  0.96339670  0.36205630  0.40142020     1.04800
O26         O  0.93337914  0.30118097  0.41995455    -0.94900
O27         O  0.91047330  0.30180395  0.50207543    -0.90600
O28         O  0.87215966  0.30447339  0.52122835    -0.83700
C29         C  0.89186470  0.29358581  0.51956123     1.11400
O30         O  0.92459159  0.43064015  0.50105507    -0.96800
Zr31       Zr  0.89959283  0.39625496  0.51063211     1.88900
O32         O  0.86467676  0.35617444  0.58006667    -0.73500
O33         O  0.94834411  0.33455956  0.51466374    -0.52700
O34         O  0.93634560  0.39379297  0.55070173    -0.97400
O35         O  0.88000676  0.43167915  0.53716383    -0.54600
O36         O  0.89077676  0.38620089  0.58392516    -0.74000
C37         C  0.87764780  0.37075183  0.60138082     0.98400
O38         O  0.83319340  0.31845293  0.54868334    -0.62800
O39         O  0.81693089  0.40676522  0.37718029    -0.57600
O40         O  0.81537375  0.34728715  0.49005457    -0.94300
O41         O  0.80967475  0.37765717  0.44319027    -0.92700
O42         O  0.82869706  0.34151923  0.33976217    -0.93100
O43         O  0.84174291  0.30190094  0.38094129    -0.91900
C44         C  0.80229309  0.36022799  0.46557835     1.17200
H45         H  0.86175660  0.38494922  0.34538651     0.33100
H46         H  0.87728118  0.30797403  0.44571942     0.44000
H47         H  0.84937613  0.39271987  0.52400555     0.37500
H48         H  0.93781289  0.38328269  0.45938106     0.34000
H49         H  0.87605019  0.29789802  0.32027297     0.25800
H50         H  0.95957290  0.32224103  0.50536971     0.31700
H51         H  0.93635735  0.37786504  0.56386158     0.37600
H52         H  0.82445033  0.35830867  0.34405331     0.32100
H53         H  0.81229075  0.42317975  0.38412458     0.31000
H54         H  0.81296836  0.42684762  0.46886402     0.32700
H55         H  0.86780434  0.42608066  0.55725040     0.31600
H56         H  0.83586921  0.30198657  0.41092716     0.35600
H57         H  0.82242445  0.32911604  0.56435877     0.28300
H58         H  0.94135130  0.40664651  0.32150614     0.32600
H59         H  0.92517933  0.43852966  0.52952451     0.35400
H60         H  0.82528498  0.40798567  0.34938674     0.28000
H61         H  0.82311404  0.30953962  0.52839224     0.40900
H62         H  0.91914018  0.29206391  0.41267341     0.31000
H63         H  0.90046145  0.30741441  0.33525017     0.38600
H64         H  0.87124602  0.43791571  0.51196447     0.30400
H65         H  0.95707693  0.34955024  0.51194163     0.30500
H66         H  0.94440388  0.42214737  0.36319173     0.30800
Zr67       Zr  0.90873184  0.38742870  0.88324714     2.17500
O68         O  0.93330923  0.41334709  0.83998502    -0.51600
O69         O  0.90211258  0.37540991  0.80760253    -0.74800
O70         O  0.95099543  0.38001598  0.89146499    -0.81600
O71         O  0.85757054  0.43120916  0.89008377    -0.83300
O72         O  0.95578749  0.34809941  0.93522276    -0.78900
O73         O  0.89594692  0.42852654  0.87262867    -0.90600
O74         O  0.87809582  0.34370698  0.80418334    -0.76500
O75         O  0.90777740  0.34522324  0.88880254    -0.86000
O76         O  0.86892805  0.37687755  0.87027685    -0.85700
O77         O  0.92050883  0.37800931  0.95657891    -0.72500
O78         O  0.88630346  0.40741093  0.93760628    -0.84600
Zr79       Zr  0.85643000  0.34492678  0.00359208     2.26400
Zr80       Zr  0.91804949  0.33561747  0.96214215     2.06300
Zr81       Zr  0.84694083  0.39530512  0.92607859     2.10000
Zr82       Zr  0.86798726  0.33494295  0.87779611     1.78800
O83         O  0.82704408  0.42377419  0.97210133    -0.93400
O84         O  0.89270348  0.30214027  0.85496043    -0.41200
O85         O  0.85101879  0.35565523  0.93309811    -0.77900
O86         O  0.87841998  0.32346430  0.94966524    -0.96600
O87         O  0.89604224  0.35553163  0.01669028    -0.89900
O88         O  0.85728597  0.38690411  0.99948370    -0.92700
C89         C  0.89029814  0.35983351  0.78640730     1.01100
C90         C  0.87642563  0.43995244  0.87507023     1.14000
C91         C  0.96381839  0.36475679  0.91143799     1.04800
O92         O  0.93007208  0.30094000  0.92134061    -0.94900
O93         O  0.90861835  0.30333662  0.01164586    -0.90600
O94         O  0.87022234  0.30666429  0.02868516    -0.83700
C95         C  0.88993379  0.29576323  0.03014015     1.11400
O96         O  0.92204050  0.43203064  0.99866384    -0.96800
Zr97       Zr  0.89748295  0.39745406  0.00960515     1.88900
O98         O  0.86257106  0.35831539  0.07889484    -0.73500
O99         O  0.94830230  0.32786593  0.01616444    -0.52700
O100        O  0.93385849  0.39589744  0.05101726    -0.97400
O101        O  0.87729050  0.43262000  0.03557037    -0.54600
O102        O  0.88888112  0.38810504  0.08283515    -0.74000
C103        C  0.87546773  0.37296759  0.10026822     0.98400
O104        O  0.82444614  0.32619415  0.04233367    -0.62800
O105        O  0.81862131  0.40424625  0.86932506    -0.57600
O106        O  0.81493731  0.34614830  0.98067387    -0.94300
O107        O  0.81035651  0.37518260  0.93073966    -0.92700
O108        O  0.83237445  0.33522852  0.83460888    -0.93100
O109        O  0.84232031  0.30084854  0.88387016    -0.91900
C110        C  0.80264944  0.35793804  0.95294785     1.17200
H111        H  0.86304151  0.38233267  0.84276709     0.33100
H112        H  0.87658387  0.30656204  0.95120551     0.44000
H113        H  0.84684494  0.39399092  0.02051449     0.37500
H114        H  0.93598553  0.38368116  0.96344586     0.34000
H115        H  0.88792611  0.28862262  0.87310373     0.25800
H116        H  0.95961021  0.31721500  0.00177209     0.31700
H117        H  0.93777490  0.37888934  0.05284135     0.37600
H118        H  0.82960685  0.35210931  0.82795535     0.32100
H119        H  0.81089779  0.41906327  0.87849435     0.31000
H120        H  0.81015821  0.42106804  0.96675161     0.32700
H121        H  0.86537358  0.42689192  0.05611794     0.31600
H122        H  0.83078684  0.30535061  0.90615737     0.35600
H123        H  0.82336871  0.31002467  0.03043440     0.28300
H124        H  0.94409289  0.40301241  0.82361778     0.32600
H125        H  0.92298818  0.43990823  0.02711349     0.35400
H126        H  0.82784335  0.40860416  0.84359609     0.28000
H127        H  0.83039294  0.32405174  0.07212894     0.40900
H128        H  0.93997994  0.30713285  0.89782116     0.31000
H129        H  0.88705381  0.29808230  0.82565391     0.38600
H130        H  0.86818637  0.43838144  0.01040688     0.30400
H131        H  0.95677901  0.34295889  0.01967211     0.30500
H132        H  0.94330314  0.42191870  0.86087728     0.30800
Zr133      Zr  0.90440553  0.10742538  0.25133100     2.17500
O134        O  0.92765433  0.07853433  0.29151745    -0.51600
O135        O  0.89516484  0.11563533  0.32745844    -0.74800
O136        O  0.94676102  0.11603843  0.25234419    -0.81600
O137        O  0.85305151  0.06498361  0.23765400    -0.83300
O138        O  0.95240332  0.14984069  0.21449478    -0.78900
O139        O  0.89182085  0.06635885  0.25403502    -0.90600
O140        O  0.87280962  0.14877043  0.33032600    -0.76500
O141        O  0.90317220  0.14961640  0.25020219    -0.86000
O142        O  0.86410507  0.11775626  0.25922421    -0.85700
O143        O  0.91913463  0.11882957  0.18142670    -0.72500
O144        O  0.88383564  0.08981108  0.19167691    -0.84600
Zr145      Zr  0.85646713  0.15473980  0.12871220     2.26400
Zr146      Zr  0.91651591  0.16123900  0.17991918     2.06300
Zr147      Zr  0.84379896  0.10105879  0.19898149     2.10000
Zr148      Zr  0.86298679  0.15986420  0.25758265     1.78800
O149        O  0.82770046  0.07307907  0.14720042    -0.93400
O150        O  0.88083720  0.19605933  0.28424684    -0.41200
O151        O  0.84311188  0.14285645  0.19811995    -0.77900
O152        O  0.87657758  0.17315641  0.18865815    -0.96600
O153        O  0.89632592  0.14378659  0.12036386    -0.89900
O154        O  0.85745247  0.11259636  0.12916535    -0.92700
C155        C  0.88366201  0.13153568  0.34821909     1.01100
C156        C  0.87214783  0.05549240  0.25105484     1.14000
C157        C  0.95989696  0.13248246  0.23714515     1.04800
O158        O  0.92899968  0.19526548  0.22200638    -0.94900
O159        O  0.91154806  0.19583887  0.13415946    -0.90600
O160        O  0.87393148  0.19272157  0.11111233    -0.83700
C161        C  0.89350871  0.20380905  0.11401019     1.11400
O162        O  0.92219622  0.06661023  0.13127591    -0.96800
Zr163      Zr  0.89781058  0.10178418  0.12276543     1.88900
O164        O  0.86298023  0.14293028  0.05370377    -0.73500
O165        O  0.94801587  0.16417132  0.12750788    -0.52700
O166        O  0.93566692  0.10719400  0.08811046    -0.97400
O167        O  0.87984493  0.06678444  0.09099071    -0.54600
O168        O  0.88920384  0.11283857  0.04972998    -0.74000
C169        C  0.87604521  0.12852758  0.03255419     0.98400
O170        O  0.82895025  0.17775404  0.08505625    -0.62800
O171        O  0.81178187  0.09006989  0.24655073    -0.57600
O172        O  0.81399181  0.15396448  0.14381721    -0.94300
O173        O  0.80748015  0.12210238  0.18684261    -0.92700
O174        O  0.82688644  0.15528368  0.29813007    -0.93100
O175        O  0.83435464  0.19163653  0.25084509    -0.91900
C176        C  0.80060790  0.14070249  0.16679220     1.17200
H177        H  0.85738336  0.11142794  0.28539942     0.33100
H178        H  0.87502554  0.19011374  0.18876002     0.44000
H179        H  0.84783036  0.10642864  0.10610556     0.37500
H180        H  0.93502888  0.11350011  0.17708039     0.34000
H181        H  0.87323376  0.19892520  0.31239137     0.25800
H182        H  0.95950990  0.17510089  0.14066050     0.31700
H183        H  0.93374260  0.10073261  0.05865004     0.37600
H184        H  0.82037614  0.14003190  0.28822608     0.32100
H185        H  0.80655807  0.07443009  0.23612459     0.31000
H186        H  0.83715562  0.05856216  0.15133124     0.32700
H187        H  0.88922375  0.06337940  0.06496440     0.31600
H188        H  0.83117718  0.19282048  0.21948415     0.35600
H189        H  0.82704477  0.19291834  0.10053377     0.28300
H190        H  0.93697882  0.08758550  0.31279939     0.32600
H191        H  0.92727414  0.06216768  0.10188842     0.35400
H192        H  0.81904011  0.08701155  0.27509842     0.28000
H193        H  0.83756015  0.18195776  0.05850856     0.40900
H194        H  0.94325755  0.20097819  0.20731782     0.31000
H195        H  0.89712361  0.19158338  0.29179347     0.38600
H196        H  0.86451341  0.07202890  0.07939024     0.30400
H197        H  0.95585426  0.14855671  0.12809306     0.30500
H198        H  0.93915537  0.07217330  0.27072088     0.30800
Zr199      Zr  0.90631864  0.11209623  0.75379536     2.17500
O200        O  0.93116370  0.08506839  0.79514672    -0.51600
O201        O  0.89863625  0.12418715  0.82831688    -0.74800
O202        O  0.94821387  0.12282389  0.75205972    -0.81600
O203        O  0.85510333  0.06803980  0.74061191    -0.83300
O204        O  0.95357992  0.15660913  0.71381131    -0.78900
O205        O  0.89295750  0.07079105  0.76261378    -0.90600
O206        O  0.87745952  0.15808585  0.83167241    -0.76500
O207        O  0.90440125  0.15416632  0.75024321    -0.86000
O208        O  0.86619586  0.12262488  0.76327074    -0.85700
O209        O  0.92023689  0.12234768  0.68276610    -0.72500
O210        O  0.88524984  0.09319837  0.69629891    -0.84600
Zr211      Zr  0.85645195  0.15625836  0.63021771     2.26400
Zr212      Zr  0.91680673  0.16466176  0.67909878     2.06300
Zr213      Zr  0.84529098  0.10451557  0.70507079     2.10000
Zr214      Zr  0.86434922  0.16466004  0.75866383     1.78800
O215        O  0.82663806  0.07562166  0.65807693    -0.93400
O216        O  0.88103923  0.20244682  0.77995559    -0.41200
O217        O  0.84352253  0.14634035  0.70113681    -0.77900
O218        O  0.87678803  0.17634486  0.68806617    -0.96600
O219        O  0.89635807  0.14570429  0.62140634    -0.89900
O220        O  0.85806096  0.11422491  0.63373160    -0.92700
C221        C  0.88837187  0.14084287  0.84931028     1.01100
C222        C  0.87365057  0.05919986  0.75739417     1.14000
C223        C  0.96115852  0.13948597  0.73682681     1.04800
O224        O  0.92623760  0.20043216  0.71887096    -0.94900
O225        O  0.91110308  0.19693947  0.62928993    -0.90600
O226        O  0.87321951  0.19366877  0.60829969    -0.83700
C227        C  0.89305128  0.20432725  0.60867875     1.11400
O228        O  0.92368023  0.06953381  0.63634774    -0.96800
Zr229      Zr  0.89839563  0.10390873  0.62607974     1.88900
O230        O  0.86318031  0.14516342  0.55484409    -0.73500
O231        O  0.94819153  0.16831971  0.62658918    -0.52700
O232        O  0.93554394  0.10765658  0.58836933    -0.97400
O233        O  0.87981876  0.06824623  0.59838721    -0.54600
O234        O  0.88922156  0.11483929  0.55271707    -0.74000
C235        C  0.87624843  0.13043230  0.53450732     0.98400
O236        O  0.82679057  0.17912411  0.59141716    -0.62800
O237        O  0.81648582  0.09667038  0.76113940    -0.57600
O238        O  0.81395329  0.15264732  0.64110438    -0.94300
O239        O  0.80822101  0.12249678  0.68839861    -0.92700
O240        O  0.82979655  0.15825348  0.80278654    -0.93100
O241        O  0.83464759  0.19544648  0.75244979    -0.91900
C242        C  0.80089664  0.13965361  0.66505147     1.17200
H243        H  0.86010340  0.11693720  0.79033665     0.33100
H244        H  0.87503201  0.19328248  0.68655858     0.44000
H245        H  0.84823636  0.10718813  0.61153197     0.37500
H246        H  0.93622777  0.11736745  0.67826362     0.34000
H247        H  0.87187579  0.20733657  0.80547683     0.25800
H248        H  0.95926153  0.17984149  0.63927527     0.31700
H249        H  0.93346005  0.09873986  0.56117314     0.37600
H250        H  0.82016746  0.14697429  0.78603653     0.32100
H251        H  0.80774589  0.08268331  0.75085222     0.31000
H252        H  0.82350005  0.06183545  0.67673038     0.32700
H253        H  0.86812897  0.07375167  0.57689978     0.31600
H254        H  0.82522683  0.19093669  0.72686153     0.35600
H255        H  0.82691788  0.19495793  0.60492278     0.28300
H256        H  0.93976327  0.09500981  0.81613755     0.32600
H257        H  0.92513662  0.06211636  0.60757828     0.35400
H258        H  0.82542888  0.09099596  0.78657508     0.28000
H259        H  0.83324953  0.18164379  0.56221159     0.40900
H260        H  0.94141673  0.20563278  0.70693929     0.31000
H261        H  0.89671329  0.19848360  0.79175547     0.38600
H262        H  0.87039814  0.06226473  0.62275265     0.30400
H263        H  0.95661619  0.15302381  0.62758643     0.30500
H264        H  0.94321346  0.07932861  0.77479869     0.30800
Zr265      Zr  0.34902769  0.35108696  0.13121740     2.17500
O266        O  0.32453033  0.32554886  0.17554394    -0.51600
O267        O  0.36416294  0.35588925  0.20528233    -0.74800
O268        O  0.35429669  0.30842556  0.11794872    -0.81600
O269        O  0.30657843  0.40514653  0.13406487    -0.83300
O270        O  0.39229548  0.31005358  0.10390748    -0.78900
O271        O  0.31050898  0.36623251  0.14960827    -0.90600
O272        O  0.39179430  0.38440830  0.20937573    -0.76500
O273        O  0.39059250  0.35371640  0.12505986    -0.86000
O274        O  0.35837725  0.39175108  0.14179674    -0.85700
O275        O  0.35699592  0.33862201  0.05772990    -0.72500
O276        O  0.32804318  0.37352330  0.07707781    -0.84600
Zr277      Zr  0.38977074  0.40292632  0.00770245     2.26400
Zr278      Zr  0.39877752  0.34150935  0.05233505     2.06300
Zr279      Zr  0.33912233  0.41391331  0.08617860     2.10000
Zr280      Zr  0.39967345  0.39439769  0.13554148     1.78800
O281        O  0.30494830  0.42664454  0.04477492    -0.93400
O282        O  0.43526559  0.37489794  0.16112399    -0.41200
O283        O  0.38074964  0.41653287  0.07940890    -0.77900
O284        O  0.40948126  0.38170164  0.06516451    -0.96600
O285        O  0.37874290  0.36295201  0.99680821    -0.89900
O286        O  0.34805383  0.40204229  0.01382329    -0.92700
C287        C  0.37804859  0.36949144  0.22679047     1.01100
C288        C  0.29929403  0.38594302  0.15130936     1.14000
C289        C  0.37327068  0.29833708  0.10571424     1.04800
O290        O  0.43435854  0.31931091  0.06843073    -0.94900
O291        O  0.43385521  0.35263378  0.01314146    -0.90600
O292        O  0.43018402  0.39118993  0.99345486    -0.83700
C293        C  0.44189572  0.37190377  0.99732031     1.11400
O294        O  0.30314275  0.33669951  0.01677004    -0.96800
Zr295      Zr  0.33710029  0.36178527  0.00494444     1.88900
O296        O  0.37699682  0.39397687  0.93312652    -0.73500
O297        O  0.39355207  0.31253441  0.99506044    -0.52700
O298        O  0.33822646  0.32519319  0.96367935    -0.97400
O299        O  0.30134997  0.38165523  0.98095853    -0.54600
O300        O  0.34503404  0.37047177  0.93089862    -0.74000
C301        C  0.36137641  0.38190690  0.91253295     0.98400
O302        O  0.41489027  0.42677583  0.96173735    -0.62800
O303        O  0.33443346  0.44569473  0.13840374    -0.57600
O304        O  0.38378747  0.44561503  0.01570525    -0.94300
O305        O  0.35323186  0.45174422  0.06079406    -0.92700
O306        O  0.39680974  0.43152270  0.17465876    -0.93100
O307        O  0.43367269  0.41969262  0.12617877    -0.91900
C308        C  0.36968527  0.45924065  0.03625950     1.17200
H309        H  0.35306650  0.39729772  0.16949966     0.33100
H310        H  0.42624217  0.38391136  0.06671276     0.44000
H311        H  0.34083371  0.41236257  0.99265365     0.37500
H312        H  0.35181783  0.32299432  0.05004134     0.34000
H313        H  0.42978888  0.36137371  0.17857103     0.25800
H314        H  0.40796022  0.30276870  0.99606732     0.31700
H315        H  0.32610349  0.32712266  0.94097631     0.37600
H316        H  0.38257684  0.43925133  0.16287408     0.32100
H317        H  0.31829454  0.45165638  0.13374776     0.31000
H318        H  0.29194085  0.41667527  0.05520556     0.32700
H319        H  0.29463763  0.37107160  0.95873878     0.31600
H320        H  0.42933729  0.43031413  0.10201149     0.35600
H321        H  0.40440891  0.43765548  0.94565728     0.28300
H322        H  0.33536240  0.31473679  0.19100648     0.32600
H323        H  0.30719479  0.32721896  0.04261211     0.35400
H324        H  0.33406267  0.43790776  0.16699059     0.28000
H325        H  0.42409197  0.43684122  0.98161642     0.40900
H326        H  0.44038267  0.32636936  0.09549121     0.31000
H327        H  0.44211323  0.36753247  0.13513337     0.38600
H328        H  0.30656703  0.39562194  0.96445425     0.30400
H329        H  0.38104862  0.30190007  0.00531682     0.30500
H330        H  0.31565058  0.31541293  0.15526727     0.30800
Zr331      Zr  0.34621412  0.34796960  0.63076686     2.17500
O332        O  0.32054842  0.32205546  0.67186100    -0.51600
O333        O  0.35855580  0.35427977  0.70668482    -0.74800
O334        O  0.35255672  0.30535505  0.61822947    -0.81600
O335        O  0.30332885  0.39992692  0.62829787    -0.83300
O336        O  0.39083863  0.30734270  0.60762967    -0.78900
O337        O  0.30616848  0.36080463  0.64401887    -0.90600
O338        O  0.38764382  0.38133618  0.71084645    -0.76500
O339        O  0.38796173  0.35135751  0.62818185    -0.86000
O340        O  0.35477813  0.38891161  0.64118842    -0.85700
O341        O  0.35670699  0.33537371  0.55828924    -0.72500
O342        O  0.32668947  0.36982960  0.57394239    -0.84600
Zr343      Zr  0.38972754  0.39974619  0.50955025     2.26400
Zr344      Zr  0.39850227  0.33881520  0.55667079     2.06300
Zr345      Zr  0.33671126  0.41040217  0.58330946     2.10000
Zr346      Zr  0.39616078  0.39235530  0.63804164     1.78800
O347        O  0.30254128  0.42150421  0.54049687    -0.93400
O348        O  0.43225639  0.37578148  0.66785240    -0.41200
O349        O  0.37851499  0.41387266  0.57981120    -0.77900
O350        O  0.40823485  0.37928959  0.56915074    -0.96600
O351        O  0.37976186  0.35942521  0.49866183    -0.89900
O352        O  0.34791535  0.39806988  0.51230615    -0.92700
C353        C  0.37287488  0.36749182  0.72819372     1.01100
C354        C  0.29529800  0.38068799  0.64458304     1.14000
C355        C  0.37184548  0.29552067  0.60702152     1.04800
O356        O  0.43455338  0.31816213  0.57579353    -0.94900
O357        O  0.43404406  0.35062733  0.51954370    -0.90600
O358        O  0.43070503  0.38864187  0.49700158    -0.83700
C359        C  0.44252625  0.36950221  0.50273676     1.11400
O360        O  0.30349483  0.33330368  0.51517363    -0.96800
Zr361      Zr  0.33797525  0.35762059  0.50312843     1.88900
O362        O  0.37932741  0.39051047  0.43397571    -0.73500
O363        O  0.39537126  0.30795789  0.50228267    -0.52700
O364        O  0.33708275  0.31982162  0.46570081    -0.97400
O365        O  0.30440094  0.37791229  0.47101718    -0.54600
O366        O  0.35021414  0.36355541  0.43010757    -0.74000
C367        C  0.36560625  0.37665705  0.41259207     0.98400
O368        O  0.41734518  0.42543491  0.47240981    -0.62800
O369        O  0.33161986  0.44219455  0.63539505    -0.57600
O370        O  0.37957177  0.44183529  0.51232414    -0.94300
O371        O  0.34784617  0.44865523  0.55443936    -0.92700
O372        O  0.38909334  0.43026191  0.67287290    -0.93100
O373        O  0.43002885  0.41822003  0.63302502    -0.91900
C374        C  0.36439191  0.45567682  0.52969790     1.17200
H375        H  0.34874783  0.39458382  0.66831123     0.33100
H376        H  0.42490331  0.38180609  0.57149298     0.44000
H377        H  0.34102033  0.40810076  0.49030332     0.37500
H378        H  0.35196085  0.31965165  0.55008722     0.34000
H379        H  0.43472790  0.38415736  0.69551326     0.25800
H380        H  0.38205777  0.31273341  0.48365650     0.31700
H381        H  0.32653713  0.32234803  0.44065897     0.37600
H382        H  0.38720152  0.42668871  0.70390997     0.32100
H383        H  0.31588279  0.44876476  0.62902686     0.31000
H384        H  0.29998677  0.43841970  0.54702046     0.32700
H385        H  0.29695871  0.36591830  0.45225972     0.31600
H386        H  0.42727607  0.42753075  0.60642110     0.35600
H387        H  0.40808319  0.43438619  0.45078197     0.28300
H388        H  0.33096380  0.31176706  0.68932695     0.32600
H389        H  0.30400351  0.32940340  0.54630577     0.35400
H390        H  0.32993442  0.43430011  0.66369810     0.28000
H391        H  0.42249845  0.43728087  0.49391533     0.40900
H392        H  0.43928231  0.32507389  0.60382665     0.31000
H393        H  0.42819477  0.35945971  0.67638215     0.38600
H394        H  0.31106237  0.38944096  0.45049401     0.30400
H395        H  0.40934067  0.31011003  0.48394085     0.30500
H396        H  0.31309805  0.31142368  0.65050653     0.30800
Zr397      Zr  0.16113021  0.34833274  0.26008669     2.17500
O398        O  0.18632153  0.32194181  0.21881747    -0.51600
O399        O  0.15055563  0.35467420  0.18384488    -0.74800
O400        O  0.15422107  0.30587237  0.27143092    -0.81600
O401        O  0.20218115  0.40045824  0.25935660    -0.83300
O402        O  0.11602941  0.30906263  0.28131369    -0.78900
O403        O  0.20098429  0.36098312  0.24707810    -0.90600
O404        O  0.12131381  0.38178532  0.18053687    -0.76500
O405        O  0.11931088  0.35105850  0.26326496    -0.86000
O406        O  0.15169850  0.38913026  0.24926337    -0.85700
O407        O  0.15117272  0.33555779  0.33264255    -0.72500
O408        O  0.18057654  0.37074963  0.31593934    -0.84600
Zr409      Zr  0.11679485  0.40018507  0.38125997     2.26400
Zr410      Zr  0.10934113  0.33899975  0.33539806     2.06300
Zr411      Zr  0.16940088  0.41105279  0.30636774     2.10000
Zr412      Zr  0.11028989  0.39175272  0.25269912     1.78800
O413        O  0.20238231  0.42333381  0.35095930    -0.93400
O414        O  0.07534757  0.37275157  0.22367934    -0.41200
O415        O  0.12765638  0.41359470  0.31031234    -0.77900
O416        O  0.09841036  0.37920758  0.32225409    -0.96600
O417        O  0.12799179  0.36012765  0.39223725    -0.89900
O418        O  0.15881509  0.39898583  0.37781144    -0.92700
C419        C  0.13640709  0.36826098  0.16284873     1.01100
C420        C  0.21099159  0.38116213  0.24443230     1.14000
C421        C  0.13462761  0.29655099  0.28165295     1.04800
O422        O  0.07474632  0.31486864  0.32304119    -0.94900
O423        O  0.07348832  0.35065994  0.37134675    -0.90600
O424        O  0.07581085  0.38861007  0.39380008    -0.83700
C425        C  0.06438433  0.36929984  0.38799182     1.11400
O426        O  0.20594665  0.33722150  0.37201391    -0.96800
Zr427      Zr  0.16975737  0.35861232  0.38679954     1.88900
O428        O  0.12886609  0.39147066  0.45646967    -0.73500
O429        O  0.11596760  0.31090382  0.39377986    -0.52700
O430        O  0.17200236  0.32051280  0.42315935    -0.97400
O431        O  0.20143509  0.37993611  0.42224610    -0.54600
O432        O  0.15783261  0.36407364  0.45980752    -0.74000
C433        C  0.14272933  0.37747871  0.47754567     0.98400
O434        O  0.09285911  0.42462012  0.42866059    -0.62800
O435        O  0.17715794  0.44375450  0.25737120    -0.57600
O436        O  0.12140432  0.44296718  0.37035576    -0.94300
O437        O  0.15302046  0.44896615  0.32776012    -0.92700
O438        O  0.11462063  0.42881622  0.21381336    -0.93100
O439        O  0.07624817  0.41766042  0.25671344    -0.91900
C440        C  0.13572066  0.45656118  0.35033781     1.17200
H441        H  0.15770985  0.39503474  0.22233707     0.33100
H442        H  0.08174893  0.38161530  0.31965972     0.44000
H443        H  0.16574358  0.40902512  0.39964149     0.37500
H444        H  0.15613670  0.31980634  0.34023987     0.34000
H445        H  0.08126702  0.36024912  0.20424612     0.25800
H446        H  0.10008041  0.30605712  0.40276259     0.31700
H447        H  0.18382807  0.32267228  0.44628135     0.37600
H448        H  0.12913618  0.43583977  0.22568008     0.32100
H449        H  0.19392226  0.44752977  0.26174403     0.31000
H450        H  0.19930339  0.44019477  0.35719789     0.32700
H451        H  0.21384703  0.38127594  0.40022830     0.31600
H452        H  0.07717753  0.42474648  0.28585909     0.35600
H453        H  0.10361791  0.43589709  0.44289875     0.28300
H454        H  0.17580312  0.31203851  0.20098733     0.32600
H455        H  0.20329340  0.32969835  0.34358543     0.35400
H456        H  0.17629424  0.43687568  0.22806876     0.28000
H457        H  0.08284566  0.43429245  0.40934241     0.40900
H458        H  0.06714268  0.32192066  0.29727181     0.31000
H459        H  0.06862943  0.36403828  0.24835990     0.38600
H460        H  0.20781543  0.36866661  0.44378058     0.30400
H461        H  0.12267467  0.29671607  0.37992487     0.30500
H462        H  0.19360215  0.31099776  0.23996474     0.30800
Zr463      Zr  0.15879438  0.34851874  0.75969867     2.17500
O464        O  0.18502547  0.32297852  0.71860366    -0.51600
O465        O  0.14508321  0.35384134  0.68440321    -0.74800
O466        O  0.15347756  0.30561384  0.77304170    -0.81600
O467        O  0.20037775  0.40269196  0.75879228    -0.83300
O468        O  0.11523715  0.30714101  0.78450599    -0.78900
O469        O  0.19743667  0.36370089  0.74320841    -0.90600
O470        O  0.11643191  0.38157978  0.67985712    -0.76500
O471        O  0.11714313  0.35118670  0.76328445    -0.86000
O472        O  0.14898773  0.38919943  0.74872109    -0.85700
O473        O  0.14968030  0.33604205  0.83270291    -0.72500
O474        O  0.17825776  0.37127615  0.81520216    -0.84600
Zr475      Zr  0.11485639  0.40015507  0.88061415     2.26400
Zr476      Zr  0.10782975  0.33870161  0.83518289     2.06300
Zr477      Zr  0.16696415  0.41160542  0.80532335     2.10000
Zr478      Zr  0.10752116  0.39184429  0.75292497     1.78800
O479        O  0.20032040  0.42381092  0.84911950    -0.93400
O480        O  0.07200928  0.37376212  0.72437964    -0.41200
O481        O  0.12517215  0.41396328  0.80981586    -0.77900
O482        O  0.09611383  0.37883822  0.82256533    -0.96600
O483        O  0.12639120  0.36030297  0.89201555    -0.89900
O484        O  0.15673323  0.39947874  0.87685482    -0.92700
C485        C  0.13088970  0.36721989  0.66270668     1.01100
C486        C  0.20816988  0.38359660  0.74154105     1.14000
C487        C  0.13436738  0.29545783  0.78426724     1.04800
O488        O  0.07170016  0.31952343  0.81286905    -0.94900
O489        O  0.07320098  0.34736855  0.87682351    -0.90600
O490        O  0.07538487  0.38590651  0.89589094    -0.83700
C491        C  0.06436827  0.36620608  0.89283059     1.11400
O492        O  0.20352385  0.33625307  0.87409518    -0.96800
Zr493      Zr  0.16806443  0.35936867  0.88674852     1.88900
O494        O  0.12466198  0.39219745  0.95635050    -0.73500
O495        O  0.11215327  0.30746927  0.88871087    -0.52700
O496        O  0.16687917  0.32199665  0.92576412    -0.97400
O497        O  0.20228045  0.37877654  0.91813738    -0.54600
O498        O  0.15604497  0.36770558  0.95920006    -0.74000
C499        C  0.13972928  0.37962485  0.97712409     0.98400
O500        O  0.09137117  0.42890743  0.91986738    -0.62800
O501        O  0.17292087  0.44373758  0.75420687    -0.57600
O502        O  0.12049491  0.44290842  0.87551104    -0.94300
O503        O  0.15146524  0.44911635  0.83143438    -0.92700
O504        O  0.11301757  0.43027094  0.71919876    -0.93100
O505        O  0.07268048  0.41664819  0.75667130    -0.91900
C506        C  0.13483801  0.45661158  0.85586390     1.17200
H507        H  0.15470862  0.39481464  0.72133431     0.33100
H508        H  0.07932971  0.38051386  0.82133603     0.44000
H509        H  0.16325658  0.40974028  0.89819195     0.37500
H510        H  0.15487414  0.32047990  0.84075102     0.34000
H511        H  0.06959071  0.38110509  0.69569831     0.25800
H512        H  0.11341959  0.31581586  0.91665783     0.31700
H513        H  0.17623242  0.32466719  0.95229484     0.37600
H514        H  0.12680400  0.42830753  0.70030174     0.32100
H515        H  0.18911586  0.44923007  0.75960570     0.31000
H516        H  0.20935570  0.43448766  0.83022323     0.32700
H517        H  0.20568245  0.36979005  0.94487597     0.31600
H518        H  0.07208750  0.42196268  0.78705933     0.35600
H519        H  0.07676539  0.43090955  0.90285896     0.28300
H520        H  0.17484100  0.31209227  0.70208334     0.32600
H521        H  0.21039981  0.33291219  0.90284751     0.35400
H522        H  0.17346880  0.43617962  0.72544994     0.28000
H523        H  0.08644613  0.42089769  0.94668820     0.40900
H524        H  0.06452081  0.33060721  0.79187204     0.31000
H525        H  0.07646936  0.35723598  0.71796331     0.38600
H526        H  0.19678354  0.39430715  0.92858034     0.30400
H527        H  0.09658504  0.29984058  0.88957616     0.30500
H528        H  0.19329011  0.31292529  0.74000802     0.30800
Zr529      Zr  0.09856834  0.61074131  0.38643513     2.17500
O530        O  0.07223111  0.58282032  0.35115441    -0.51600
O531        O  0.10584571  0.61995340  0.31015059    -0.74800
O532        O  0.05715633  0.62332891  0.38735544    -0.81600
O533        O  0.14919329  0.56600404  0.39585162    -0.83300
O534        O  0.05180046  0.65577926  0.42934429    -0.78900
O535        O  0.11115207  0.56955959  0.37514640    -0.90600
O536        O  0.13349722  0.64843730  0.30808100    -0.76500
O537        O  0.10144665  0.65285174  0.38912760    -0.86000
O538        O  0.13910754  0.61927195  0.37764861    -0.85700
O539        O  0.08514797  0.62242707  0.45717068    -0.72500
O540        O  0.11877152  0.59115483  0.44468864    -0.84600
Zr541      Zr  0.14998785  0.65424070  0.50917698     2.26400
Zr542      Zr  0.08966779  0.66481037  0.46018879     2.06300
Zr543      Zr  0.15915909  0.60086437  0.43663493     2.10000
Zr544      Zr  0.14174828  0.66128049  0.38027662     1.78800
O545        O  0.17557849  0.57262321  0.48790800    -0.93400
O546        O  0.12089492  0.69458254  0.34792864    -0.41200
O547        O  0.16173155  0.64264427  0.43840372    -0.77900
O548        O  0.12999321  0.67433234  0.45040473    -0.96600
O549        O  0.10962041  0.64541040  0.51821270    -0.89900
O550        O  0.14685676  0.61214586  0.50745463    -0.92700
C551        C  0.11997402  0.63353901  0.28965736     1.01100
C552        C  0.13047477  0.55779717  0.37873194     1.14000
C553        C  0.04410933  0.63932117  0.40479740     1.04800
O554        O  0.07876499  0.69910892  0.41703415    -0.94900
O555        O  0.09991476  0.69861090  0.50571571    -0.90600
O556        O  0.13750186  0.69401567  0.52805492    -0.83700
C557        C  0.11837975  0.70592188  0.52566268     1.11400
O558        O  0.08062294  0.56924878  0.50779619    -0.96800
Zr559      Zr  0.10609997  0.60352371  0.51432582     1.88900
O560        O  0.14283135  0.64173324  0.58419914    -0.73500
O561        O  0.06003142  0.67221321  0.51480191    -0.52700
O562        O  0.06847110  0.60990356  0.54928324    -0.97400
O563        O  0.12337014  0.56776015  0.54493739    -0.54600
O564        O  0.11488791  0.61343975  0.58751178    -0.74000
C565        C  0.12899732  0.62794900  0.60515933     0.98400
O566        O  0.17699635  0.67541270  0.55658163    -0.62800
O567        O  0.18775400  0.58520314  0.38599834    -0.57600
O568        O  0.19205550  0.65150727  0.49071716    -0.94300
O569        O  0.19634467  0.62041491  0.44537138    -0.92700
O570        O  0.17969160  0.65885520  0.34514723    -0.93100
O571        O  0.16640937  0.69622204  0.38429004    -0.91900
C572        C  0.20437819  0.63838384  0.46559540     1.17200
H573        H  0.14534999  0.61267724  0.35129915     0.33100
H574        H  0.13246685  0.69114210  0.45044047     0.44000
H575        H  0.15620523  0.60509262  0.53002436     0.37500
H576        H  0.06911256  0.61788255  0.46190593     0.34000
H577        H  0.13144263  0.70040851  0.32504984     0.25800
H578        H  0.04970150  0.68448749  0.50211705     0.31700
H579        H  0.06993853  0.62542512  0.56367948     0.37600
H580        H  0.18182943  0.64186474  0.33878044     0.32100
H581        H  0.19256545  0.59886059  0.36823080     0.31000
H582        H  0.17285675  0.55701089  0.47450274     0.32700
H583        H  0.13554531  0.57315198  0.56549436     0.31600
H584        H  0.17282640  0.69607202  0.41402388     0.35600
H585        H  0.18811621  0.66352786  0.56822173     0.28300
H586        H  0.06370721  0.59193771  0.32873445     0.32600
H587        H  0.07712598  0.56436705  0.53775539     0.35400
H588        H  0.20174105  0.58115034  0.40355134     0.28000
H589        H  0.18645059  0.68590397  0.53801068     0.40900
H590        H  0.06740503  0.70785424  0.43504911     0.31000
H591        H  0.10759034  0.68752872  0.33194721     0.38600
H592        H  0.13221331  0.56057485  0.52089981     0.30400
H593        H  0.05033451  0.65776948  0.51539623     0.30500
H594        H  0.06028950  0.57867871  0.37289801     0.30800
Zr595      Zr  0.09782072  0.61110957  0.88624564     2.17500
O596        O  0.07364786  0.58459614  0.84306608    -0.51600
O597        O  0.10461566  0.62334902  0.81054316    -0.74800
O598        O  0.05526276  0.61829497  0.89402452    -0.81600
O599        O  0.15012253  0.56756948  0.89361123    -0.83300
O600        O  0.05003775  0.65067854  0.93620682    -0.78900
O601        O  0.11121082  0.56987911  0.87839514    -0.90600
O602        O  0.12797496  0.65555754  0.80695936    -0.76500
O603        O  0.09835447  0.65319476  0.89170492    -0.86000
O604        O  0.13741686  0.62241641  0.87412041    -0.85700
O605        O  0.08598949  0.62033103  0.95928276    -0.72500
O606        O  0.12097435  0.59212410  0.94119295    -0.84600
Zr607      Zr  0.14994423  0.65557664  0.00733157     2.26400
Zr608      Zr  0.08770057  0.66268044  0.96454961     2.06300
Zr609      Zr  0.16029346  0.60409388  0.92966414     2.10000
Zr610      Zr  0.13792675  0.66449003  0.88013817     1.78800
O611        O  0.18033400  0.57470351  0.97402524    -0.93400
O612        O  0.11495891  0.69855171  0.85649656    -0.41200
O613        O  0.16054558  0.64594816  0.93507326    -0.77900
O614        O  0.12711737  0.67522823  0.95183754    -0.96600
O615        O  0.11060327  0.64376468  0.01935448    -0.89900
O616        O  0.14966362  0.61337751  0.00246693    -0.92700
C617        C  0.11615016  0.63911511  0.78930653     1.01100
C618        C  0.13084086  0.55851672  0.88038817     1.14000
C619        C  0.04216761  0.63364667  0.91307082     1.04800
O620        O  0.07304094  0.69727352  0.92627256    -0.94900
O621        O  0.09568069  0.69719132  0.00933781    -0.90600
O622        O  0.13396391  0.69393114  0.02846595    -0.83700
C623        C  0.11430571  0.70516182  0.02758909     1.11400
O624        O  0.08716714  0.56606994  0.00145279    -0.96800
Zr625      Zr  0.10993983  0.60189088  0.01290105     1.88900
O626        O  0.14512667  0.64336181  0.08293898    -0.73500
O627        O  0.05933212  0.66512530  0.02282955    -0.52700
O628        O  0.07383365  0.60199973  0.05444537    -0.97400
O629        O  0.13092005  0.56742545  0.04054215    -0.54600
O630        O  0.11883692  0.61361826  0.08523808    -0.74000
C631        C  0.13193368  0.62889578  0.10355761     0.98400
O632        O  0.18003285  0.67683052  0.04763936    -0.62800
O633        O  0.18819046  0.59659965  0.87194933    -0.57600
O634        O  0.19192527  0.65450157  0.98779708    -0.94300
O635        O  0.19684199  0.62400153  0.94097974    -0.92700
O636        O  0.17483534  0.66275219  0.84129255    -0.93100
O637        O  0.16297756  0.69923982  0.88223836    -0.91900
C638        C  0.20444473  0.64184208  0.96206749     1.17200
H639        H  0.14324840  0.61695431  0.84668511     0.33100
H640        H  0.12842151  0.69218927  0.95243445     0.44000
H641        H  0.16021465  0.60641194  0.02350290     0.37500
H642        H  0.07058410  0.61447142  0.96592096     0.34000
H643        H  0.12418262  0.70566559  0.83289872     0.25800
H644        H  0.04782888  0.67716625  0.01317826     0.31700
H645        H  0.07220888  0.61840730  0.06500811     0.37600
H646        H  0.17681907  0.64591612  0.83353841     0.32100
H647        H  0.19667652  0.58213355  0.88097439     0.31000
H648        H  0.19430796  0.58288303  0.98561738     0.32700
H649        H  0.14219986  0.57358159  0.06208379     0.31600
H650        H  0.15562319  0.71007138  0.90325264     0.35600
H651        H  0.18114256  0.69247633  0.03353259     0.28300
H652        H  0.06250310  0.59469807  0.82678341     0.32600
H653        H  0.08556399  0.55869549  0.03024496     0.35400
H654        H  0.17876048  0.59173801  0.84660360     0.28000
H655        H  0.17302436  0.68024043  0.07606953     0.40900
H656        H  0.05835054  0.70149018  0.94127818     0.31000
H657        H  0.10106009  0.69184444  0.84179030     0.38600
H658        H  0.14070876  0.56203633  0.01619399     0.30400
H659        H  0.05065851  0.65003320  0.02177174     0.30500
H660        H  0.06400720  0.57583818  0.86409882     0.30800
Zr661      Zr  0.09774830  0.89028650  0.25192811     2.17500
O662        O  0.07228982  0.91785837  0.29004345    -0.51600
O663        O  0.10614577  0.87823409  0.32656488    -0.74800
O664        O  0.05633206  0.87862893  0.25118994    -0.81600
O665        O  0.14660586  0.93519103  0.24106178    -0.83300
O666        O  0.05092842  0.84656893  0.20834366    -0.78900
O667        O  0.10897532  0.93189969  0.26303055    -0.90600
O668        O  0.13105896  0.84714754  0.32937931    -0.76500
O669        O  0.09981019  0.84824657  0.24612269    -0.86000
O670        O  0.13797829  0.88030625  0.26205069    -0.85700
O671        O  0.08407709  0.88068858  0.18021883    -0.72500
O672        O  0.11872901  0.91006440  0.19584483    -0.84600
Zr673      Zr  0.14882722  0.84834288  0.12830158     2.26400
Zr674      Zr  0.08787802  0.83845469  0.17389847     2.06300
Zr675      Zr  0.15872041  0.89946625  0.20552945     2.10000
Zr676      Zr  0.13993552  0.83831912  0.25580177     1.78800
O677        O  0.17788212  0.92830037  0.15941459    -0.93400
O678        O  0.12027834  0.80296498  0.28163810    -0.41200
O679        O  0.16082616  0.85772742  0.20020053    -0.77900
O680        O  0.12792973  0.82764912  0.18463567    -0.96600
O681        O  0.10866597  0.85834714  0.11805930    -0.89900
O682        O  0.14646989  0.89037639  0.13340253    -0.92700
C683        C  0.11870887  0.86304942  0.34744808     1.01100
C684        C  0.12800800  0.94376573  0.25799331     1.14000
C685        C  0.04338003  0.86258640  0.23390589     1.04800
O686        O  0.07604351  0.80219354  0.20976212    -0.94900
O687        O  0.09738531  0.80553538  0.12597713    -0.90600
O688        O  0.13577672  0.80898401  0.10795954    -0.83700
C689        C  0.11628076  0.79775628  0.10841894     1.11400
O690        O  0.08318442  0.93599867  0.13808330    -0.96800
Zr691      Zr  0.10585305  0.90015916  0.12513885     1.88900
O692        O  0.14267020  0.86350767  0.05416188    -0.73500
O693        O  0.05714701  0.83661875  0.11919064    -0.52700
O694        O  0.06740200  0.89649345  0.09133220    -0.97400
O695        O  0.12372656  0.93528943  0.09396285    -0.54600
O696        O  0.11348803  0.89069081  0.05140703    -0.74000
C697        C  0.12830473  0.87710413  0.03330992     0.98400
O698        O  0.17455815  0.82512001  0.08201182    -0.62800
O699        O  0.18446373  0.91220063  0.26393719    -0.57600
O700        O  0.19096793  0.85111330  0.14769544    -0.94300
O701        O  0.19603328  0.88018247  0.19725038    -0.92700
O702        O  0.17604186  0.84011315  0.29735439    -0.93100
O703        O  0.16610252  0.80473710  0.24589121    -0.91900
C704        C  0.20368886  0.86309187  0.17434545     1.17200
H705        H  0.14413869  0.88595592  0.28914377     0.33100
H706        H  0.13001804  0.81078902  0.18385355     0.44000
H707        H  0.15618084  0.89783246  0.11197187     0.37500
H708        H  0.06800451  0.88561172  0.17599492     0.34000
H709        H  0.13007081  0.79743556  0.30612840     0.25800
H710        H  0.04568767  0.82511954  0.13049599     0.31700
H711        H  0.06856448  0.90525322  0.06380396     0.37600
H712        H  0.17686323  0.85654543  0.30804954     0.32100
H713        H  0.20005428  0.91452770  0.25081577     0.31000
H714        H  0.18470623  0.93992555  0.17968906     0.32700
H715        H  0.13605612  0.92947661  0.07428413     0.31600
H716        H  0.17585066  0.80908787  0.22080856     0.35600
H717        H  0.18566290  0.83649462  0.06920122     0.28300
H718        H  0.06400136  0.90843196  0.31206833     0.32600
H719        H  0.07849330  0.94188996  0.10921740     0.35400
H720        H  0.18624886  0.89816653  0.28268138     0.28000
H721        H  0.18417495  0.81517059  0.10158158     0.40900
H722        H  0.06258456  0.79639699  0.19256302     0.31000
H723        H  0.10571194  0.80875283  0.29527153     0.38600
H724        H  0.13242347  0.94261098  0.11817765     0.30400
H725        H  0.04903361  0.85206210  0.12087627     0.30500
H726        H  0.06006143  0.92269092  0.26900598     0.30800
Zr727      Zr  0.09569101  0.89066611  0.75061845     2.17500
O728        O  0.06948251  0.91740800  0.78912030    -0.51600
O729        O  0.10493140  0.88009407  0.82632527    -0.74800
O730        O  0.05436053  0.87844387  0.74860387    -0.81600
O731        O  0.14365626  0.93671554  0.74051698    -0.83300
O732        O  0.04948502  0.84633194  0.70559498    -0.78900
O733        O  0.10551774  0.93249745  0.75968303    -0.90600
O734        O  0.13239803  0.85116216  0.82880908    -0.76500
O735        O  0.09942840  0.84875837  0.74574786    -0.86000
O736        O  0.13636661  0.88234473  0.75996678    -0.85700
O737        O  0.08212751  0.88036826  0.67905530    -0.72500
O738        O  0.11573859  0.91095093  0.69359262    -0.84600
Zr739      Zr  0.14785005  0.84935403  0.62777066     2.26400
Zr740      Zr  0.08715336  0.83818377  0.67413022     2.06300
Zr741      Zr  0.15615334  0.90178774  0.70253246     2.10000
Zr742      Zr  0.14004520  0.84049151  0.75509263     1.78800
O743        O  0.17104929  0.93621897  0.66455840    -0.93400
O744        O  0.12213808  0.80629574  0.78921973    -0.41200
O745        O  0.16047277  0.86002794  0.69876346    -0.77900
O746        O  0.12758608  0.82840463  0.68443764    -0.96600
O747        O  0.10736655  0.85829151  0.61799847    -0.89900
O748        O  0.14390461  0.89134212  0.63139049    -0.92700
C749        C  0.11899710  0.86617239  0.84711116     1.01100
C750        C  0.12446931  0.94458078  0.75642017     1.14000
C751        C  0.04162147  0.86247865  0.73051345     1.04800
O752        O  0.07738177  0.80327243  0.71615827    -0.94900
O753        O  0.09553301  0.80613358  0.62388797    -0.90600
O754        O  0.13378067  0.81053981  0.60586561    -0.83700
C755        C  0.11436096  0.79906601  0.60536368     1.11400
O756        O  0.08078373  0.93638855  0.63154625    -0.96800
Zr757      Zr  0.10315810  0.90000144  0.62328947     1.88900
O758        O  0.14190181  0.86394319  0.55373617    -0.73500
O759        O  0.05675069  0.83260359  0.61965880    -0.52700
O760        O  0.06409877  0.89781519  0.59144065    -0.97400
O761        O  0.12059946  0.93415716  0.58775102    -0.54600
O762        O  0.10962751  0.88721745  0.55111422    -0.74000
C763        C  0.12561116  0.87510384  0.53303267     0.98400
O764        O  0.17526585  0.82815879  0.58152891    -0.62800
O765        O  0.18306215  0.90714395  0.76294089    -0.57600
O766        O  0.18951740  0.85238867  0.65134558    -0.94300
O767        O  0.19330308  0.89045238  0.67135554    -0.92700
O768        O  0.17899632  0.84475696  0.78656852    -0.93100
O769        O  0.16400606  0.80510792  0.74767502    -0.91900
C770        C  0.20200920  0.86986886  0.66484444     1.17200
H771        H  0.14248962  0.88858082  0.78672349     0.33100
H772        H  0.12998821  0.81154144  0.68325447     0.44000
H773        H  0.15350286  0.89890141  0.61001664     0.37500
H774        H  0.06599658  0.88497374  0.67437142     0.34000
H775        H  0.13238439  0.80266802  0.81425461     0.25800
H776        H  0.04555793  0.82138293  0.63267529     0.31700
H777        H  0.06506555  0.88527218  0.56931242     0.37600
H778        H  0.17729409  0.85697987  0.80914575     0.32100
H779        H  0.19212335  0.89224961  0.76461483     0.31000
H780        H  0.18415106  0.94195230  0.68273666     0.32700
H781        H  0.10938560  0.93838246  0.56449188     0.31600
H782        H  0.17318816  0.80781012  0.72113302     0.35600
H783        H  0.18698413  0.83993453  0.57222078     0.28300
H784        H  0.06116920  0.90759927  0.81055020     0.32600
H785        H  0.07400594  0.93531353  0.66079922     0.35400
H786        H  0.19436665  0.91918681  0.75313496     0.28000
H787        H  0.18392315  0.81713385  0.60067999     0.40900
H788        H  0.08497719  0.78992832  0.70105493     0.31000
H789        H  0.10748196  0.81232380  0.80218189     0.38600
H790        H  0.13443902  0.92812613  0.57212562     0.30400
H791        H  0.04820576  0.84782818  0.61840843     0.30500
H792        H  0.05733656  0.92228674  0.76794802     0.30800
Zr793      Zr  0.65953354  0.64982180  0.13159029     2.17500
O794        O  0.68819786  0.67382604  0.17035451    -0.51600
O795        O  0.65003741  0.64477350  0.20819645    -0.74800
O796        O  0.65434316  0.69270750  0.12231884    -0.81600
O797        O  0.69989395  0.59385356  0.12745981    -0.83300
O798        O  0.61582618  0.69199257  0.11293891    -0.78900
O799        O  0.69799298  0.63282470  0.14363930    -0.90600
O800        O  0.62075094  0.61799111  0.21252821    -0.76500
O801        O  0.61764230  0.64914361  0.13056443    -0.86000
O802        O  0.64884656  0.60956489  0.14236572    -0.85700
O803        O  0.64858325  0.66361664  0.05995708    -0.72500
O804        O  0.67680918  0.62720805  0.07398792    -0.84600
Zr805      Zr  0.61104010  0.60074692  0.01224675     2.26400
Zr806      Zr  0.60657642  0.66224952  0.05931789     2.06300
Zr807      Zr  0.66462903  0.58725608  0.08404884     2.10000
Zr808      Zr  0.60735563  0.60885272  0.14102953     1.78800
O809        O  0.69750829  0.57364878  0.04096314    -0.93400
O810        O  0.57461553  0.63051989  0.17233379    -0.41200
O811        O  0.62267061  0.58622882  0.08231375    -0.77900
O812        O  0.59474180  0.62232660  0.07232661    -0.96600
O813        O  0.62299959  0.64047024  0.00082694    -0.89900
O814        O  0.65293474  0.60036089  0.01357539    -0.92700
C815        C  0.63613026  0.63144401  0.22968077     1.01100
C816        C  0.70865510  0.61280788  0.14344781     1.14000
C817        C  0.63511795  0.70333634  0.11303910     1.04800
O818        O  0.57315008  0.68758248  0.07510854    -0.94900
O819        O  0.56929088  0.65259609  0.02522696    -0.90600
O820        O  0.57091129  0.61481925  0.00092952    -0.83700
C821        C  0.55991367  0.63426559  0.00794843     1.11400
O822        O  0.70081068  0.66263438  0.01553731    -0.96800
Zr823      Zr  0.66487155  0.64028442  0.00382683     1.88900
O824        O  0.62158857  0.60806464  0.93617539    -0.73500
O825        O  0.61253653  0.69094635  0.00180729    -0.52700
O826        O  0.66310164  0.67790972  0.96558682    -0.97400
O827        O  0.69730846  0.61920159  0.97005063    -0.54600
O828        O  0.65283078  0.63251032  0.93123796    -0.74000
C829        C  0.63650048  0.62023662  0.91438133     0.98400
O830        O  0.58137990  0.57823282  0.97338220    -0.62800
O831        O  0.66816021  0.55513386  0.13608138    -0.57600
O832        O  0.61619634  0.55765826  0.01640531    -0.94300
O833        O  0.64885279  0.55063239  0.05625554    -0.92700
O834        O  0.60987315  0.57107173  0.17829874    -0.93100
O835        O  0.57130434  0.58599430  0.13963178    -0.91900
C836        C  0.63122386  0.54357884  0.03382604     1.17200
H837        H  0.65521883  0.60337177  0.16897413     0.33100
H838        H  0.57802245  0.62064110  0.07541716     0.44000
H839        H  0.65892924  0.59001639  0.99147044     0.37500
H840        H  0.65410242  0.67915334  0.05284685     0.34000
H841        H  0.58186693  0.64342056  0.18923568     0.25800
H842        H  0.59808243  0.70064973  0.00151623     0.31700
H843        H  0.67207291  0.67537928  0.93873295     0.37600
H844        H  0.61561105  0.55983524  0.15628383     0.32100
H845        H  0.68302191  0.54709043  0.12864893     0.31000
H846        H  0.70802699  0.58747516  0.03918001     0.32700
H847        H  0.70330788  0.63013792  0.94782287     0.31600
H848        H  0.57020987  0.57992078  0.10975497     0.35600
H849        H  0.58997040  0.56868039  0.95190778     0.28300
H850        H  0.67912275  0.68474822  0.18882376     0.32600
H851        H  0.70680829  0.66668574  0.98657989     0.35400
H852        H  0.67132789  0.56278495  0.16419512     0.28000
H853        H  0.57499008  0.56679473  0.99437492     0.40900
H854        H  0.56573934  0.68027220  0.10061855     0.31000
H855        H  0.56700521  0.63861488  0.14762372     0.38600
H856        H  0.69010478  0.60626911  0.95319249     0.30400
H857        H  0.62481924  0.70172288  0.01266240     0.30500
H858        H  0.69574214  0.68396022  0.14844804     0.30800
Zr859      Zr  0.65521924  0.65086724  0.63486807     2.17500
O860        O  0.68066149  0.67611096  0.67809809    -0.51600
O861        O  0.64136253  0.64460094  0.70919486    -0.74800
O862        O  0.64737185  0.69345354  0.62386080    -0.81600
O863        O  0.69811617  0.59856441  0.63205371    -0.83300
O864        O  0.60948710  0.69390776  0.60490293    -0.78900
O865        O  0.69529739  0.63747471  0.64932258    -0.90600
O866        O  0.61147019  0.61833904  0.71139665    -0.76500
O867        O  0.61368480  0.64871792  0.62764273    -0.86000
O868        O  0.64519909  0.61029641  0.64502265    -0.85700
O869        O  0.64724276  0.66410080  0.56184901    -0.72500
O870        O  0.67516805  0.62844049  0.58007595    -0.84600
Zr871      Zr  0.61287114  0.60045661  0.50998848     2.26400
Zr872      Zr  0.60540161  0.66146457  0.55510807     2.06300
Zr873      Zr  0.66376045  0.58827148  0.58897888     2.10000
Zr874      Zr  0.60381179  0.60820434  0.63754448     1.78800
O875        O  0.69762352  0.57145375  0.55251965    -0.93400
O876        O  0.56831669  0.62759713  0.66287635    -0.41200
O877        O  0.62215927  0.58630296  0.58125677    -0.77900
O878        O  0.59339434  0.62150204  0.56733774    -0.96600
O879        O  0.62470150  0.64018976  0.49913203    -0.89900
O880        O  0.65471040  0.60080672  0.51684989    -0.92700
C881        C  0.62635746  0.63185049  0.72962776     1.01100
C882        C  0.70637785  0.61765043  0.64858654     1.14000
C883        C  0.62878373  0.70455615  0.61147250     1.04800
O884        O  0.57001172  0.68423130  0.56814324    -0.94900
O885        O  0.57019024  0.65259603  0.51412401    -0.90600
O886        O  0.57297199  0.61419938  0.49404448    -0.83700
C887        C  0.56158399  0.63374927  0.49770904     1.11400
O888        O  0.70263131  0.66268184  0.51756188    -0.96800
Zr889      Zr  0.66626998  0.64083038  0.50825587     1.88900
O890        O  0.62378784  0.60935485  0.43542279    -0.73500
O891        O  0.61337967  0.68993322  0.49815420    -0.52700
O892        O  0.66758594  0.67913930  0.47254363    -0.97400
O893        O  0.70090525  0.61993946  0.48249689    -0.54600
O894        O  0.65561904  0.63305840  0.43459199    -0.74000
C895        C  0.63925229  0.62165869  0.41565438     0.98400
O896        O  0.59131563  0.57216313  0.46616160    -0.62800
O897        O  0.66544849  0.55820603  0.64528101    -0.57600
O898        O  0.61842642  0.55770317  0.51589208    -0.94300
O899        O  0.64977940  0.55121537  0.55964259    -0.92700
O900        O  0.60762445  0.56974408  0.67217284    -0.93100
O901        O  0.56949679  0.58302642  0.63098712    -0.91900
C902        C  0.63308559  0.54393073  0.53509440     1.17200
H903        H  0.65054555  0.60448104  0.67263008     0.33100
H904        H  0.57663246  0.61984377  0.56817592     0.44000
H905        H  0.66182768  0.59050607  0.49567409     0.37500
H906        H  0.65265016  0.67984789  0.55546919     0.34000
H907        H  0.56398601  0.61893823  0.68939795     0.25800
H908        H  0.59820500  0.69803337  0.49322900     0.31700
H909        H  0.67446351  0.67598083  0.44386791     0.37600
H910        H  0.62084865  0.57143015  0.69270295     0.32100
H911        H  0.67885490  0.54800158  0.63732666     0.31000
H912        H  0.70600556  0.56226347  0.57501217     0.32700
H913        H  0.69509103  0.60811670  0.46157087     0.31600
H914        H  0.56944761  0.57784106  0.60049798     0.35600
H915        H  0.57634745  0.56954825  0.48139846     0.28300
H916        H  0.67006194  0.68579642  0.69607629     0.32600
H917        H  0.70736128  0.65979096  0.54788676     0.35400
H918        H  0.67074652  0.56651227  0.67163509     0.28000
H919        H  0.58684079  0.58071093  0.43951737     0.40900
H920        H  0.56288992  0.67673784  0.59375723     0.31000
H921        H  0.57351979  0.64324966  0.67330852     0.38600
H922        H  0.70643217  0.61057478  0.50754299     0.30400
H923        H  0.62339761  0.70206564  0.51181201     0.30500
H924        H  0.68773828  0.68736765  0.65751788     0.30800
Zr925      Zr  0.84789680  0.65127539  0.25411344     2.17500
O926        O  0.82415265  0.67852133  0.21116477    -0.51600
O927        O  0.85925470  0.64684681  0.17808577    -0.74800
O928        O  0.85279803  0.69363944  0.27066871    -0.81600
O929        O  0.80731439  0.59838306  0.24778017    -0.83300
O930        O  0.89103559  0.69283713  0.28407360    -0.78900
O931        O  0.80895376  0.63776070  0.23514610    -0.90600
O932        O  0.88705353  0.61829589  0.17343654    -0.76500
O933        O  0.88969302  0.64889465  0.25842013    -0.86000
O934        O  0.85778871  0.61081958  0.24116664    -0.85700
O935        O  0.85707898  0.66218483  0.32808093    -0.72500
O936        O  0.82800214  0.62787643  0.30791137    -0.84600
Zr937      Zr  0.89194494  0.59768082  0.37332536     2.26400
Zr938      Zr  0.89891272  0.65972476  0.33160947     2.06300
Zr939      Zr  0.83969995  0.58787627  0.29603111     2.10000
Zr940      Zr  0.89921149  0.60846131  0.24561372     1.78800
O941        O  0.80594442  0.57492258  0.33733513    -0.93400
O942        O  0.93258668  0.62941779  0.21549290    -0.41200
O943        O  0.88155339  0.58538225  0.30127606    -0.77900
O944        O  0.91047409  0.61987896  0.31629663    -0.96600
O945        O  0.88033331  0.63731182  0.38697929    -0.89900
O946        O  0.85016694  0.59844014  0.36836305    -0.92700
C947        C  0.87251369  0.63284628  0.15640172     1.01100
C948        C  0.79893344  0.61761598  0.23169112     1.14000
C949        C  0.87155447  0.70397354  0.28338985     1.04800
O950        O  0.93364305  0.68309138  0.31641914    -0.94900
O951        O  0.93462298  0.64852546  0.36902323    -0.90600
O952        O  0.93246188  0.61004438  0.38895683    -0.83700
C953        C  0.94364790  0.62962765  0.38496939     1.11400
O954        O  0.80307853  0.66141083  0.36968228    -0.96800
Zr955      Zr  0.83856473  0.63807596  0.38044584     1.88900
O956        O  0.88140015  0.60520707  0.44935899    -0.73500
O957        O  0.89358585  0.68683651  0.39174875    -0.52700
O958        O  0.83627968  0.67448687  0.42204606    -0.97400
O959        O  0.80625182  0.61391070  0.40648878    -0.54600
O960        O  0.84993329  0.62959889  0.45355778    -0.74000
C961        C  0.86621232  0.61726956  0.47090847     0.98400
O962        O  0.91525888  0.56682974  0.40818290    -0.62800
O963        O  0.83531150  0.55648905  0.24293704    -0.57600
O964        O  0.88253854  0.55571831  0.36709243    -0.94300
O965        O  0.85175484  0.54941972  0.32205363    -0.92700
O966        O  0.89800276  0.57045489  0.20900099    -0.93100
O967        O  0.93531355  0.58546824  0.24977983    -0.91900
C968        C  0.86790797  0.54205394  0.34764861     1.17200
H969        H  0.85179525  0.60536678  0.21377357     0.33100
H970        H  0.92722687  0.61788950  0.31468518     0.44000
H971        H  0.84338640  0.58763597  0.38927661     0.37500
H972        H  0.85179673  0.67735459  0.33707782     0.34000
H973        H  0.92572359  0.64264850  0.19873003     0.25800
H974        H  0.90777013  0.69684010  0.39160436     0.31700
H975        H  0.82630241  0.67065099  0.44709619     0.37600
H976        H  0.88671473  0.56092492  0.22568391     0.32100
H977        H  0.81878092  0.55145356  0.24536797     0.31000
H978        H  0.79249360  0.58378505  0.32510399     0.32700
H979        H  0.79425580  0.62520032  0.41673689     0.31600
H980        H  0.93416789  0.57668033  0.27731149     0.35600
H981        H  0.92907662  0.56443936  0.38950163     0.28300
H982        H  0.83514026  0.68948807  0.19688232     0.32600
H983        H  0.80578586  0.67019642  0.34254521     0.35400
H984        H  0.83621704  0.56438959  0.21451233     0.28000
H985        H  0.92150767  0.57389854  0.43506065     0.40900
H986        H  0.94150858  0.67460942  0.29260453     0.31000
H987        H  0.94018936  0.63708296  0.24057710     0.38600
H988        H  0.81213672  0.60625596  0.43316069     0.30400
H989        H  0.88075499  0.69756414  0.38273752     0.30500
H990        H  0.81514396  0.68830047  0.23174148     0.30800
Zr991      Zr  0.84761724  0.64792844  0.75184143     2.17500
O992        O  0.82331139  0.67354084  0.70647597    -0.51600
O993        O  0.86126575  0.64137450  0.67708021    -0.74800
O994        O  0.85225868  0.69073870  0.76589682    -0.81600
O995        O  0.80516368  0.59433880  0.75217156    -0.83300
O996        O  0.89035993  0.69020297  0.78094215    -0.78900
O997        O  0.80865618  0.63309028  0.73512290    -0.90600
O998        O  0.89167462  0.61553055  0.67480442    -0.76500
O999        O  0.88931359  0.64561732  0.75811377    -0.86000
O1000       O  0.85777416  0.60736683  0.74199864    -0.85700
O1001       O  0.85594607  0.66026562  0.82539560    -0.72500
O1002       O  0.82740789  0.62558831  0.80655558    -0.84600
Zr1003     Zr  0.89067691  0.59711920  0.87628783     2.26400
Zr1004     Zr  0.89783435  0.65808463  0.83066380     2.06300
Zr1005     Zr  0.83910463  0.58535788  0.79773640     2.10000
Zr1006     Zr  0.89920661  0.60500066  0.74857291     1.78800
O1007       O  0.80561739  0.57065225  0.83782795    -0.93400
O1008       O  0.93554234  0.62270156  0.72366693    -0.41200
O1009       O  0.88075485  0.58352367  0.80496473    -0.77900
O1010       O  0.91006692  0.61807824  0.81886567    -0.96600
O1011       O  0.87859288  0.63680642  0.88654454    -0.89900
O1012       O  0.84875323  0.59714382  0.87008922    -0.92700
C1013       C  0.87636013  0.62865720  0.65649648     1.01100
C1014       C  0.79744225  0.61342226  0.73460627     1.14000
C1015       C  0.87093650  0.70135510  0.77842482     1.04800
O1016       O  0.93316143  0.67948204  0.81157707    -0.94900
O1017       O  0.93278400  0.64937206  0.87288261    -0.90600
O1018       O  0.93024840  0.61110402  0.89381143    -0.83700
C1019       C  0.94139102  0.63075817  0.89055005     1.11400
O1020       O  0.79986488  0.65798419  0.87039737    -0.96800
Zr1021     Zr  0.83697958  0.63707299  0.87876582     1.88900
O1022       O  0.88053096  0.60687712  0.95125956    -0.73500
O1023       O  0.89216845  0.68707668  0.88763625    -0.52700
O1024       O  0.83218466  0.67508669  0.91437700    -0.97400
O1025       O  0.80603923  0.61211331  0.90755050    -0.54600
O1026       O  0.84996437  0.63245019  0.95209201    -0.74000
C1027       C  0.86615848  0.62063716  0.97097939     0.98400
O1028       O  0.91189457  0.56786034  0.91913132    -0.62800
O1029       O  0.83532069  0.55425925  0.74384758    -0.57600
O1030       O  0.88607356  0.55444062  0.86763922    -0.94300
O1031       O  0.85479534  0.54815203  0.82346051    -0.92700
O1032       O  0.89422525  0.56869298  0.70756359    -0.93100
O1033       O  0.93102850  0.57668857  0.75790172    -0.91900
C1034       C  0.87176630  0.54083453  0.84742944     1.17200
H1035       H  0.85242905  0.60158302  0.71442384     0.33100
H1036       H  0.92681481  0.61628997  0.81878591     0.44000
H1037       H  0.84202772  0.58687250  0.89103673     0.37500
H1038       H  0.85049374  0.67573257  0.83321785     0.34000
H1039       H  0.93087719  0.63835145  0.71218609     0.25800
H1040       H  0.90725413  0.69559407  0.88939794     0.31700
H1041       H  0.84805080  0.67922203  0.92485915     0.37600
H1042       H  0.88553852  0.55803604  0.72704971     0.32100
H1043       H  0.81934530  0.54790488  0.74781980     0.31000
H1044       H  0.80350632  0.55425973  0.82749333     0.32700
H1045       H  0.79361858  0.61212820  0.88513823     0.31600
H1046       H  0.92701257  0.56791005  0.78447955     0.35600
H1047       H  0.92737248  0.56626789  0.90515713     0.28300
H1048       H  0.83416994  0.68452594  0.69190805     0.32600
H1049       H  0.80036439  0.66464559  0.84088067     0.35400
H1050       H  0.83469254  0.56246837  0.71566851     0.28000
H1051       H  0.91530172  0.57563865  0.94701093     0.40900
H1052       H  0.94003857  0.67020825  0.78770499     0.31000
H1053       H  0.94454661  0.62630561  0.75020619     0.38600
H1054       H  0.79934219  0.62125743  0.93175237     0.30400
H1055       H  0.88102260  0.69876866  0.87552888     0.30500
H1056       H  0.81403985  0.68348385  0.72639931     0.30800
Zr1057     Zr  0.65890364  0.84924891  0.00778936     2.17500
O1058       O  0.68427472  0.82305773  0.96635563    -0.51600
O1059       O  0.64750895  0.85437061  0.93160682    -0.74800
O1060       O  0.65147163  0.80686017  0.02115008    -0.81600
O1061       O  0.70031574  0.90290150  0.00601606    -0.83300
O1062       O  0.61320216  0.80738471  0.03568235    -0.78900
O1063       O  0.69808924  0.86362626  0.99255076    -0.90600
O1064       O  0.61831588  0.88149452  0.92747139    -0.76500
O1065       O  0.61723330  0.85150773  0.01154313    -0.86000
O1066       O  0.64894793  0.88971193  0.99581215    -0.85700
O1067       O  0.64987691  0.83721970  0.08097975    -0.72500
O1068       O  0.67845580  0.87208372  0.06288612    -0.84600
Zr1069     Zr  0.61451260  0.90208433  0.12710413     2.26400
Zr1070     Zr  0.60803832  0.84017153  0.08423159     2.06300
Zr1071     Zr  0.66694534  0.91219998  0.05185083     2.10000
Zr1072     Zr  0.60751959  0.89190288  0.99955722     1.78800
O1073       O  0.69982210  0.92540704  0.09584367    -0.93400
O1074       O  0.57322803  0.87100837  0.97227638    -0.41200
O1075       O  0.62512935  0.91475246  0.05567273    -0.77900
O1076       O  0.59632293  0.87993587  0.06953673    -0.96600
O1077       O  0.62626621  0.86238806  0.14009395    -0.89900
O1078       O  0.65649575  0.90119554  0.12398822    -0.92700
C1079       C  0.63327373  0.86765668  0.91015041     1.01100
C1080       C  0.70848347  0.88369418  0.98995285     1.14000
C1081       C  0.63254157  0.79628706  0.03249486     1.04800
O1082       O  0.57148274  0.81956060  0.07069422    -0.94900
O1083       O  0.57302628  0.85080591  0.12317474    -0.90600
O1084       O  0.57403848  0.88977203  0.13964280    -0.83700
C1085       C  0.56339194  0.86985928  0.13679835     1.11400
O1086       O  0.70205794  0.83547113  0.12777158    -0.96800
Zr1087     Zr  0.66792698  0.86112173  0.13472801     1.88900
O1088       O  0.62409183  0.89365932  0.20296738    -0.73500
O1089       O  0.61472238  0.81153972  0.14175371    -0.52700
O1090       O  0.66648762  0.82499768  0.17739775    -0.97400
O1091       O  0.70303769  0.88143068  0.15998898    -0.54600
O1092       O  0.65658123  0.87065774  0.20699612    -0.74000
C1093       C  0.63951728  0.88175566  0.22424669     0.98400
O1094       O  0.58971801  0.92704907  0.17198614    -0.62800
O1095       O  0.67320697  0.94353700  0.99920156    -0.57600
O1096       O  0.62009361  0.94473317  0.11628805    -0.94300
O1097       O  0.65160129  0.95014798  0.07315690    -0.92700
O1098       O  0.60939113  0.92904239  0.96024162    -0.93100
O1099       O  0.57249815  0.91638676  0.00470669    -0.91900
C1100       C  0.63458625  0.95799713  0.09595864     1.17200
H1101       H  0.65479820  0.89535111  0.96849130     0.33100
H1102       H  0.57961331  0.88167861  0.06707387     0.44000
H1103       H  0.66326699  0.91179976  0.14543044     0.37500
H1104       H  0.65514665  0.82155225  0.08893841     0.34000
H1105       H  0.57939878  0.85612592  0.95997589     0.25800
H1106       H  0.59894270  0.80543034  0.14855196     0.31700
H1107       H  0.67678980  0.82796197  0.20260443     0.37600
H1108       H  0.62597825  0.93391773  0.96258917     0.32100
H1109       H  0.68948408  0.94889940  0.00411237     0.31000
H1110       H  0.70761038  0.93758479  0.07811297     0.32700
H1111       H  0.71010794  0.87066447  0.18164305     0.31600
H1112       H  0.57500466  0.92599445  0.03099265     0.35600
H1113       H  0.60022293  0.93829792  0.18693321     0.28300
H1114       H  0.67369250  0.81246677  0.95003275     0.32600
H1115       H  0.70390210  0.83320754  0.09630931     0.35400
H1116       H  0.67351603  0.93563022  0.97074422     0.28000
H1117       H  0.58027798  0.93666772  0.15163983     0.40900
H1118       H  0.56651708  0.82486656  0.04160768     0.31000
H1119       H  0.56458366  0.86599750  0.99830020     0.38600
H1120       H  0.69730461  0.89494048  0.17722767     0.30400
H1121       H  0.62281587  0.79810296  0.12785504     0.30500
H1122       H  0.69226004  0.81277951  0.98773421     0.30800
Zr1123     Zr  0.65831368  0.84901896  0.50638523     2.17500
O1124       O  0.68749159  0.82326322  0.47314357    -0.51600
O1125       O  0.64731431  0.85443616  0.43020156    -0.74800
O1126       O  0.65184602  0.80621735  0.51649399    -0.81600
O1127       O  0.69884127  0.90383551  0.50487390    -0.83300
O1128       O  0.61356048  0.80828653  0.52674551    -0.78900
O1129       O  0.69560281  0.86544009  0.48536205    -0.90600
O1130       O  0.61982909  0.88344679  0.42627808    -0.76500
O1131       O  0.61649098  0.85168193  0.50779613    -0.86000
O1132       O  0.64903035  0.88984228  0.49659925    -0.85700
O1133       O  0.64775462  0.83589957  0.57824110    -0.72500
O1134       O  0.67724355  0.87090294  0.56359438    -0.84600
Zr1135     Zr  0.61245554  0.89971219  0.62699001     2.26400
Zr1136     Zr  0.60583090  0.83884310  0.57920327     2.06300
Zr1137     Zr  0.66627346  0.91134379  0.55471360     2.10000
Zr1138     Zr  0.60765626  0.89256648  0.49829699     1.78800
O1139       O  0.69890180  0.92130161  0.60210844    -0.93400
O1140       O  0.57272737  0.87444091  0.46743922    -0.41200
O1141       O  0.62436344  0.91393040  0.55715506    -0.77900
O1142       O  0.59507702  0.87912742  0.56666479    -0.96600
O1143       O  0.62360256  0.85967583  0.63758780    -0.89900
O1144       O  0.65454731  0.89878676  0.62534219    -0.92700
C1145       C  0.63425036  0.86901837  0.40902597     1.01100
C1146       C  0.70611948  0.88543337  0.48456189     1.14000
C1147       C  0.63256520  0.79639946  0.52748846     1.04800
O1148       O  0.57047306  0.81691270  0.56143519    -0.94900
O1149       O  0.56963388  0.84984619  0.61496302    -0.90600
O1150       O  0.57135322  0.88806729  0.63621367    -0.83700
C1151       C  0.56015501  0.86865659  0.63026365     1.11400
O1152       O  0.70231862  0.83769765  0.62244137    -0.96800
Zr1153     Zr  0.66540987  0.85842160  0.63393280     1.88900
O1154       O  0.62238336  0.89133421  0.70299836    -0.73500
O1155       O  0.61110217  0.80856085  0.63439005    -0.52700
O1156       O  0.66475679  0.81960715  0.66789997    -0.97400
O1157       O  0.69827042  0.87678856  0.67149211    -0.54600
O1158       O  0.65202129  0.86471246  0.70598432    -0.74000
C1159       C  0.63645928  0.87759992  0.72385464     0.98400
O1160       O  0.58664946  0.92298619  0.67280531    -0.62800
O1161       O  0.67459408  0.94540716  0.50920397    -0.57600
O1162       O  0.61770852  0.94243614  0.61945501    -0.94300
O1163       O  0.64953318  0.94869094  0.57764254    -0.92700
O1164       O  0.61265047  0.93111840  0.46486617    -0.93100
O1165       O  0.57258659  0.91712458  0.50039326    -0.91900
C1166       C  0.63218442  0.95613596  0.60021658     1.17200
H1167       H  0.65526182  0.89590812  0.46989477     0.33100
H1168       H  0.57843895  0.88133656  0.56314177     0.44000
H1169       H  0.66106801  0.90883697  0.64785647     0.37500
H1170       H  0.65277655  0.82018068  0.58556490     0.34000
H1171       H  0.57831901  0.86520413  0.44242610     0.25800
H1172       H  0.61326020  0.81723596  0.66180822     0.31700
H1173       H  0.67640871  0.82057786  0.69159455     0.37600
H1174       H  0.62727729  0.93738493  0.47768120     0.32100
H1175       H  0.69117755  0.94936989  0.51510811     0.31000
H1176       H  0.71080975  0.90896433  0.59638955     0.32700
H1177       H  0.70259897  0.86539837  0.69446717     0.31600
H1178       H  0.57406055  0.92617200  0.52758348     0.35600
H1179       H  0.59698779  0.93334997  0.69009518     0.28300
H1180       H  0.67881736  0.81243026  0.45380844     0.32600
H1181       H  0.69990133  0.82873526  0.59537859     0.35400
H1182       H  0.67435252  0.93946176  0.47917760     0.28000
H1183       H  0.57786891  0.93361129  0.65313446     0.40900
H1184       H  0.56347285  0.82554929  0.53672951     0.31000
H1185       H  0.56803512  0.86237839  0.48880753     0.38600
H1186       H  0.69155508  0.89037211  0.68727949     0.30400
H1187       H  0.59549236  0.80117840  0.63712160     0.30500
H1188       H  0.69392242  0.81320191  0.49654616     0.30800
Zr1189     Zr  0.84328987  0.85016201  0.37786683     2.17500
O1190       O  0.81643510  0.82522273  0.41826160    -0.51600
O1191       O  0.85278170  0.85826248  0.45395838    -0.74800
O1192       O  0.85281099  0.80753342  0.37341110    -0.81600
O1193       O  0.80018920  0.90178411  0.36594785    -0.83300
O1194       O  0.89152616  0.80711627  0.36149075    -0.78900
O1195       O  0.80298644  0.86338940  0.38684961    -0.90600
O1196       O  0.87825023  0.88880082  0.45593032    -0.76500
O1197       O  0.88476755  0.85491784  0.38005055    -0.86000
O1198       O  0.85010492  0.89175918  0.38259077    -0.85700
O1199       O  0.85668839  0.83466239  0.30945200    -0.72500
O1200       O  0.82497404  0.86845947  0.31573348    -0.84600
Zr1201     Zr  0.88981554  0.89766067  0.25457178     2.26400
Zr1202     Zr  0.89836482  0.83954151  0.31248309     2.06300
Zr1203     Zr  0.83366420  0.90966557  0.31938350     2.10000
Zr1204     Zr  0.89138583  0.89635744  0.38410108     1.78800
O1205       O  0.80176506  0.91676611  0.26851953    -0.93400
O1206       O  0.92542332  0.88149411  0.42355814    -0.41200
O1207       O  0.87520319  0.91395728  0.32081428    -0.77900
O1208       O  0.90680286  0.88067539  0.31916665    -0.96600
O1209       O  0.88142082  0.85664595  0.24885908    -0.89900
O1210       O  0.84798363  0.89474832  0.25222662    -0.92700
C1211       C  0.86487838  0.87386637  0.47432615     1.01100
C1212       C  0.79205712  0.88321776  0.38441039     1.14000
C1213       C  0.87202432  0.79641292  0.36519677     1.04800
O1214       O  0.93409971  0.82462361  0.34601040    -0.94900
O1215       O  0.93452474  0.84934475  0.27613511    -0.90600
O1216       O  0.93111192  0.88634238  0.24870063    -0.83700
C1217       C  0.94305161  0.86773200  0.25784852     1.11400
O1218       O  0.80528158  0.82847176  0.25469797    -0.96800
Zr1219     Zr  0.83957806  0.85373136  0.24871723     1.88900
O1220       O  0.88107737  0.88678777  0.17919056    -0.73500
O1221       O  0.89889474  0.80638009  0.26261203    -0.52700
O1222       O  0.84259747  0.81453513  0.21699123    -0.97400
O1223       O  0.80695208  0.87282455  0.21133648    -0.54600
O1224       O  0.85251156  0.85911597  0.17625456    -0.74000
C1225       C  0.86758836  0.87247164  0.15851502     0.98400
O1226       O  0.91272538  0.92499287  0.21123572    -0.62800
O1227       O  0.82328666  0.94561143  0.35814947    -0.57600
O1228       O  0.88338887  0.94031638  0.25667556    -0.94300
O1229       O  0.84932831  0.94655914  0.29212271    -0.92700
O1230       O  0.88369408  0.93552355  0.41322881    -0.93100
O1231       O  0.92510304  0.92239840  0.37840025    -0.91900
C1232       C  0.86744642  0.95399436  0.27178653     1.17200
H1233       H  0.84284943  0.89849542  0.40774061     0.33100
H1234       H  0.92332237  0.88361218  0.32289888     0.44000
H1235       H  0.84162868  0.90331945  0.22796875     0.37500
H1236       H  0.85269817  0.81844872  0.30339963     0.34000
H1237       H  0.92032387  0.86630846  0.43618305     0.25800
H1238       H  0.90666328  0.81255243  0.23648044     0.31700
H1239       H  0.85953613  0.81223025  0.21179113     0.37600
H1240       H  0.87543505  0.94407707  0.38976622     0.32100
H1241       H  0.80614747  0.94744875  0.35440425     0.31000
H1242       H  0.79080650  0.92727705  0.28407003     0.32700
H1243       H  0.79399534  0.87302281  0.23240724     0.31600
H1244       H  0.92554926  0.92696981  0.34757780     0.35600
H1245       H  0.92603493  0.92978222  0.22982168     0.28300
H1246       H  0.82626099  0.81647075  0.43931782     0.32600
H1247       H  0.79687731  0.83429980  0.28044658     0.35400
H1248       H  0.82550430  0.94167886  0.38901973     0.28000
H1249       H  0.91985214  0.91544295  0.18799007     0.40900
H1250       H  0.93617595  0.83447724  0.37209277     0.31000
H1251       H  0.93679870  0.87694508  0.40103887     0.38600
H1252       H  0.80195440  0.86133141  0.18912143     0.30400
H1253       H  0.91038390  0.79517888  0.27523215     0.30500
H1254       H  0.81083823  0.81313684  0.39762001     0.30800
Zr1255     Zr  0.84638889  0.84905677  0.87720627     2.17500
O1256       O  0.82130849  0.82314210  0.91948130    -0.51600
O1257       O  0.86060149  0.85284190  0.95183267    -0.74800
O1258       O  0.85396610  0.80669969  0.86375257    -0.81600
O1259       O  0.80406494  0.90164059  0.87855904    -0.83300
O1260       O  0.89214136  0.80690425  0.84799622    -0.78900
O1261       O  0.80662617  0.86227904  0.89265243    -0.90600
O1262       O  0.89099153  0.87837996  0.95720622    -0.76500
O1263       O  0.88789254  0.85170482  0.87307593    -0.86000
O1264       O  0.85610886  0.88952757  0.89008024    -0.85700
O1265       O  0.85529590  0.83715122  0.80403699    -0.72500
O1266       O  0.82650995  0.87246656  0.82311445    -0.84600
Zr1267     Zr  0.88956624  0.90194609  0.75746322     2.26400
Zr1268     Zr  0.89712209  0.84027053  0.80067491     2.06300
Zr1269     Zr  0.83780750  0.91255355  0.83449106     2.10000
Zr1270     Zr  0.89754367  0.89204478  0.88506857     1.78800
O1271       O  0.80381900  0.92774007  0.79540525    -0.93400
O1272       O  0.93407685  0.87281864  0.90623864    -0.41200
O1273       O  0.87952108  0.91493268  0.82911205    -0.77900
O1274       O  0.90847356  0.88006741  0.81479437    -0.96600
O1275       O  0.87809308  0.86223653  0.74486435    -0.89900
O1276       O  0.84767122  0.90129118  0.76218196    -0.92700
C1277       C  0.87604831  0.86436417  0.97367478     1.01100
C1278       C  0.79587253  0.88223952  0.89399786     1.14000
C1279       C  0.87288045  0.79592918  0.85256628     1.04800
O1280       O  0.93367683  0.82099269  0.82081627    -0.94900
O1281       O  0.93170021  0.85085347  0.76011161    -0.90600
O1282       O  0.92994240  0.88971623  0.74319261    -0.83700
C1283       C  0.94095760  0.86994693  0.74588606     1.11400
O1284       O  0.80283269  0.83533517  0.76193434    -0.96800
Zr1285     Zr  0.83637742  0.86128100  0.75131902     1.88900
O1286       O  0.87783521  0.89557704  0.68189167    -0.73500
O1287       O  0.89219479  0.81024540  0.74525690    -0.52700
O1288       O  0.83791036  0.82606388  0.70631820    -0.97400
O1289       O  0.80038348  0.88101479  0.72777469    -0.54600
O1290       O  0.84580544  0.87227706  0.67905158    -0.74000
C1291       C  0.86206793  0.88405421  0.66097801     0.98400
O1292       O  0.91466647  0.92624786  0.71217298    -0.62800
O1293       O  0.83427350  0.94293997  0.88973093    -0.57600
O1294       O  0.88466348  0.94442146  0.76783825    -0.94300
O1295       O  0.85215984  0.95033523  0.80833851    -0.92700
O1296       O  0.89347777  0.92778596  0.92803374    -0.93100
O1297       O  0.93056814  0.91895569  0.88000097    -0.91900
C1298       C  0.86959111  0.95788170  0.78613902     1.17200
H1299       H  0.85058425  0.89463815  0.91793728     0.33100
H1300       H  0.92520275  0.88186259  0.81657198     0.44000
H1301       H  0.84075341  0.91193994  0.74110327     0.37500
H1302       H  0.85026394  0.82149542  0.79596608     0.34000
H1303       H  0.93801033  0.87963049  0.93475034     0.25800
H1304       H  0.90262466  0.81528908  0.72159606     0.31700
H1305       H  0.85440465  0.82493710  0.69686666     0.37600
H1306       H  0.87684009  0.92818684  0.93677882     0.32100
H1307       H  0.81963245  0.95150100  0.88242624     0.31000
H1308       H  0.80129703  0.94378278  0.80718899     0.32700
H1309       H  0.79590801  0.87296024  0.70064431     0.31600
H1310       H  0.92766549  0.92797260  0.85310886     0.35600
H1311       H  0.90427184  0.93752656  0.69682865     0.28300
H1312       H  0.83206895  0.81301972  0.93657548     0.32600
H1313       H  0.79538368  0.83342483  0.73324059     0.35400
H1314       H  0.83065171  0.93438695  0.91672127     0.28000
H1315       H  0.92407943  0.93593217  0.73231075     0.40900
H1316       H  0.94050000  0.83128937  0.84336194     0.31000
H1317       H  0.92974341  0.85627244  0.91257989     0.38600
H1318       H  0.80505424  0.89700898  0.71840709     0.30400
H1319       H  0.89984481  0.79597485  0.75734702     0.30500
H1320       H  0.81384830  0.81234762  0.89843881     0.30800
Zr1321     Zr  0.60056306  0.11239841  0.12779174     2.17500
O1322       O  0.57701387  0.08684476  0.08157799    -0.51600
O1323       O  0.60998142  0.12462207  0.05334879    -0.74800
O1324       O  0.55822701  0.12099820  0.13027531    -0.81600
O1325       O  0.65048138  0.06715239  0.13868350    -0.83300
O1326       O  0.55285478  0.15315539  0.17275058    -0.78900
O1327       O  0.61255104  0.07113435  0.11762760    -0.90600
O1328       O  0.63541952  0.15520628  0.05224890    -0.76500
O1329       O  0.60246708  0.15443285  0.13348391    -0.86000
O1330       O  0.64092195  0.12193251  0.12059075    -0.85700
O1331       O  0.58664327  0.12175103  0.19949849    -0.72500
O1332       O  0.62073602  0.09194691  0.18511765    -0.84600
Zr1333     Zr  0.65001718  0.15417294  0.25469625     2.26400
Zr1334     Zr  0.58976670  0.16404422  0.20515853     2.06300
Zr1335     Zr  0.66087570  0.10233021  0.17842738     2.10000
Zr1336     Zr  0.64281176  0.16397786  0.12680368     1.78800
O1337       O  0.67808004  0.07207929  0.22476405    -0.93400
O1338       O  0.62273449  0.19940551  0.10131803    -0.41200
O1339       O  0.66223055  0.14399810  0.18384311    -0.77900
O1340       O  0.62993973  0.17511741  0.19736285    -0.96600
O1341       O  0.60992918  0.14394054  0.26203746    -0.89900
O1342       O  0.64828653  0.11195901  0.24999401    -0.92700
C1343       C  0.62309038  0.13953607  0.03331907     1.01100
C1344       C  0.63166311  0.05913844  0.12157291     1.14000
C1345       C  0.54508769  0.13652474  0.14858710     1.04800
O1346       O  0.57862278  0.19899841  0.16415598    -0.94900
O1347       O  0.59677302  0.19736614  0.25352152    -0.90600
O1348       O  0.63411150  0.19235529  0.27704261    -0.83700
C1349       C  0.61482983  0.20419389  0.27501387     1.11400
O1350       O  0.58385935  0.06744923  0.24049681    -0.96800
Zr1351     Zr  0.60777453  0.10211184  0.25579265     1.88900
O1352       O  0.64250206  0.14184993  0.32917850    -0.73500
O1353       O  0.55909954  0.16863206  0.25888783    -0.52700
O1354       O  0.57087677  0.10323254  0.29511440    -0.97400
O1355       O  0.62657530  0.06680793  0.28517414    -0.54600
O1356       O  0.61431303  0.11374759  0.32941588    -0.74000
C1357       C  0.62783661  0.12838059  0.34857107     0.98400
O1358       O  0.68011377  0.17422239  0.29688472    -0.62800
O1359       O  0.69096238  0.09360440  0.12515594    -0.57600
O1360       O  0.69235938  0.15272150  0.23749758    -0.94300
O1361       O  0.69761886  0.12145489  0.19257846    -0.92700
O1362       O  0.68053964  0.16192171  0.09079825    -0.93100
O1363       O  0.66955699  0.19689300  0.13724391    -0.91900
C1364       C  0.70513478  0.13961290  0.21292160     1.17200
H1365       H  0.64742789  0.11628148  0.09382311     0.33100
H1366       H  0.63188025  0.19200189  0.19906868     0.44000
H1367       H  0.65789614  0.10459247  0.27209712     0.37500
H1368       H  0.57082897  0.11645967  0.20393606     0.34000
H1369       H  0.63396985  0.20702689  0.08152884     0.25800
H1370       H  0.54707897  0.17877221  0.24497558     0.31700
H1371       H  0.55836795  0.10381716  0.27291293     0.37600
H1372       H  0.68327251  0.14485893  0.08599497     0.32100
H1373       H  0.69830415  0.07869544  0.13506452     0.31000
H1374       H  0.69519963  0.07398335  0.22135289     0.32700
H1375       H  0.63772584  0.07250661  0.30735924     0.31600
H1376       H  0.67512196  0.19523120  0.16740450     0.35600
H1377       H  0.68097434  0.19035387  0.28466609     0.28300
H1378       H  0.56736299  0.09743642  0.06324023     0.32600
H1379       H  0.58145693  0.05957860  0.26864669     0.35400
H1380       H  0.68256075  0.08943087  0.09822205     0.28000
H1381       H  0.67325341  0.17649434  0.32577301     0.40900
H1382       H  0.56620915  0.20656713  0.18156151     0.31000
H1383       H  0.61009445  0.19358823  0.08214047     0.38600
H1384       H  0.63653424  0.06081361  0.26153908     0.30400
H1385       H  0.55172210  0.15288539  0.26100957     0.30500
H1386       H  0.56587384  0.07881252  0.10099632     0.30800
Zr1387     Zr  0.59757462  0.11054758  0.63212253     2.17500
O1388       O  0.57139990  0.08336767  0.59452948    -0.51600
O1389       O  0.60445920  0.11906993  0.55564583    -0.74800
O1390       O  0.55615618  0.12237127  0.63488914    -0.81600
O1391       O  0.64730728  0.06563345  0.63970884    -0.83300
O1392       O  0.55147373  0.15535312  0.67557564    -0.78900
O1393       O  0.60855581  0.06904455  0.62395199    -0.90600
O1394       O  0.62938435  0.14999123  0.55109651    -0.76500
O1395       O  0.60022703  0.15260090  0.63409468    -0.86000
O1396       O  0.63781503  0.11937136  0.62026036    -0.85700
O1397       O  0.58519694  0.12183818  0.70362691    -0.72500
O1398       O  0.61906312  0.09120533  0.68898376    -0.84600
Zr1399     Zr  0.65054484  0.15496231  0.75085232     2.26400
Zr1400     Zr  0.58921071  0.16414893  0.70574658     2.06300
Zr1401     Zr  0.65905588  0.10108514  0.67788281     2.10000
Zr1402     Zr  0.64035937  0.16141875  0.62298592     1.78800
O1403       O  0.67621150  0.07175024  0.72619580    -0.93400
O1404       O  0.62131457  0.19731619  0.59699881    -0.41200
O1405       O  0.66112634  0.14288452  0.67995280    -0.77900
O1406       O  0.62922042  0.17456896  0.69343312    -0.96600
O1407       O  0.61059573  0.14542202  0.76284525    -0.89900
O1408       O  0.64826678  0.11278877  0.74928549    -0.92700
C1409       C  0.61682652  0.13379499  0.53402107     1.01100
C1410       C  0.62787193  0.05730048  0.62563721     1.14000
C1411       C  0.54349889  0.13871072  0.65199453     1.04800
O1412       O  0.57502017  0.19822500  0.66531759    -0.94900
O1413       O  0.59740610  0.19872904  0.74940871    -0.90600
O1414       O  0.63484295  0.19351467  0.77203123    -0.83700
C1415       C  0.61570297  0.20559485  0.76991525     1.11400
O1416       O  0.58240905  0.06921810  0.75422433    -0.96800
Zr1417     Zr  0.60790918  0.10347599  0.75942454     1.88900
O1418       O  0.64674146  0.14212657  0.82639720    -0.73500
O1419       O  0.56078785  0.16805272  0.76365402    -0.52700
O1420       O  0.57155599  0.10727383  0.79951555    -0.97400
O1421       O  0.62653846  0.06791665  0.78828179    -0.54600
O1422       O  0.61850150  0.11425074  0.83149320    -0.74000
C1423       C  0.63325972  0.12842776  0.84827528     0.98400
O1424       O  0.68099158  0.17754790  0.78758291    -0.62800
O1425       O  0.68868374  0.09008127  0.62518839    -0.57600
O1426       O  0.69236904  0.15241840  0.73084127    -0.94300
O1427       O  0.69630306  0.12002757  0.68819675    -0.92700
O1428       O  0.67714229  0.15716109  0.58430121    -0.93100
O1429       O  0.66797458  0.19406553  0.62545312    -0.91900
C1430       C  0.70451459  0.13844786  0.70679866     1.17200
H1431       H  0.64355632  0.11293436  0.59351083     0.33100
H1432       H  0.63134838  0.19146974  0.69362615     0.44000
H1433       H  0.65849143  0.10591527  0.77116536     0.37500
H1434       H  0.56927009  0.11712397  0.70928889     0.34000
H1435       H  0.62917756  0.20089254  0.56938395     0.25800
H1436       H  0.55043093  0.18121937  0.75454343     0.31700
H1437       H  0.57157418  0.12371272  0.81031515     0.37600
H1438       H  0.67929573  0.13991791  0.58084744     0.32100
H1439       H  0.69506618  0.07484991  0.63570018     0.31000
H1440       H  0.66573206  0.05792313  0.72379825     0.32700
H1441       H  0.61662568  0.06324163  0.81293301     0.31600
H1442       H  0.67193799  0.19582817  0.65641152     0.35600
H1443       H  0.68160832  0.19287866  0.77223664     0.28300
H1444       H  0.56274904  0.09299103  0.57299615     0.32600
H1445       H  0.57953775  0.06722568  0.72291926     0.35400
H1446       H  0.68009094  0.08620857  0.59830282     0.28000
H1447       H  0.67448212  0.18140273  0.81626185     0.40900
H1448       H  0.56284313  0.20534080  0.68388984     0.31000
H1449       H  0.60533155  0.19240599  0.58844475     0.38600
H1450       H  0.64132998  0.07317371  0.80193751     0.30400
H1451       H  0.55083886  0.15382414  0.76149264     0.30500
H1452       H  0.55952376  0.07851433  0.61590622     0.30800
Zr1453     Zr  0.59787747  0.38966931  0.50303394     2.17500
O1454       O  0.57228474  0.41793069  0.53918961    -0.51600
O1455       O  0.60424287  0.37915609  0.57970552    -0.74800
O1456       O  0.55611892  0.37859923  0.49889457    -0.81600
O1457       O  0.64921879  0.43384002  0.49483025    -0.83300
O1458       O  0.55106246  0.34608666  0.45699170    -0.78900
O1459       O  0.61062021  0.43092222  0.51146415    -0.90600
O1460       O  0.63086677  0.34930984  0.58382976    -0.76500
O1461       O  0.59972991  0.34764159  0.49872557    -0.86000
O1462       O  0.63796679  0.37964348  0.51493632    -0.85700
O1463       O  0.58532934  0.37945264  0.43077853    -0.72500
O1464       O  0.61996609  0.40854981  0.44705929    -0.84600
Zr1465     Zr  0.65040417  0.34542811  0.38283600     2.26400
Zr1466     Zr  0.58881815  0.33702847  0.42628322     2.06300
Zr1467     Zr  0.65985148  0.39770204  0.45842120     2.10000
Zr1468     Zr  0.63963565  0.33765241  0.51077346     1.78800
O1469       O  0.67883013  0.42698881  0.41290180    -0.93400
O1470       O  0.61752807  0.30344398  0.53513922    -0.41200
O1471       O  0.66156110  0.35584518  0.45480566    -0.77900
O1472       O  0.62868160  0.32591583  0.43941492    -0.96600
O1473       O  0.61053260  0.35601428  0.37076682    -0.89900
O1474       O  0.64855215  0.38762432  0.38618735    -0.92700
C1475       C  0.61761701  0.36489049  0.60108561     1.01100
C1476       C  0.63000181  0.44250127  0.50895479     1.14000
C1477       C  0.54320434  0.36257479  0.48122950     1.04800
O1478       O  0.57648263  0.30159409  0.46420433    -0.94900
O1479       O  0.59850942  0.30340722  0.37989373    -0.90600
O1480       O  0.63729267  0.30568610  0.36422135    -0.83700
C1481       C  0.61748710  0.29497535  0.36358605     1.11400
O1482       O  0.59072545  0.43699715  0.38269453    -0.96800
Zr1483     Zr  0.60823543  0.39788139  0.37594330     1.88900
O1484       O  0.64321531  0.35695046  0.30716629    -0.73500
O1485       O  0.55932625  0.33432626  0.36936330    -0.52700
O1486       O  0.56887770  0.39965768  0.34527636    -0.97400
O1487       O  0.62858589  0.42946950  0.33809130    -0.54600
O1488       O  0.61215941  0.38198908  0.30470413    -0.74000
C1489       C  0.62690035  0.36817801  0.28676888     0.98400
O1490       O  0.68030331  0.32517986  0.34063505    -0.62800
O1491       O  0.68792454  0.40593417  0.51603640    -0.57600
O1492       O  0.69262771  0.34809345  0.40070823    -0.94300
O1493       O  0.69713479  0.37918164  0.44623862    -0.92700
O1494       O  0.67675154  0.33860971  0.54954083    -0.93100
O1495       O  0.66424884  0.30254341  0.50693402    -0.91900
C1496       C  0.70511144  0.36135774  0.42554299     1.17200
H1497       H  0.64380337  0.38563108  0.54205845     0.33100
H1498       H  0.63052518  0.30898655  0.43950130     0.44000
H1499       H  0.65869888  0.39462366  0.36481187     0.37500
H1500       H  0.56943030  0.38452146  0.42528718     0.34000
H1501       H  0.62635695  0.29744210  0.56045492     0.25800
H1502       H  0.54753711  0.32309341  0.38040089     0.31700
H1503       H  0.56996237  0.41108689  0.32119273     0.37600
H1504       H  0.68526357  0.35203347  0.53660081     0.32100
H1505       H  0.69554446  0.42087068  0.50744400     0.31000
H1506       H  0.67503386  0.44242881  0.42609908     0.32700
H1507       H  0.63808374  0.42156818  0.31569006     0.31600
H1508       H  0.67176014  0.30351018  0.47827477     0.35600
H1509       H  0.68365538  0.31033407  0.35641172     0.28300
H1510       H  0.56301628  0.40863298  0.56003811     0.32600
H1511       H  0.58430611  0.43740478  0.41228725     0.35400
H1512       H  0.67856479  0.41005481  0.54175390     0.28000
H1513       H  0.67234367  0.32005542  0.31379843     0.40900
H1514       H  0.56088239  0.29787998  0.45194385     0.31000
H1515       H  0.60290260  0.30993868  0.54744401     0.38600
H1516       H  0.64015979  0.43558395  0.35914329     0.30400
H1517       H  0.55128516  0.34984157  0.36935794     0.30500
H1518       H  0.56087658  0.42324136  0.51701402     0.30800
Zr1519     Zr  0.59652495  0.38806846  0.00353199     2.17500
O1520       O  0.57088084  0.41217293  0.04841169    -0.51600
O1521       O  0.60406460  0.37633363  0.07991175    -0.74800
O1522       O  0.55467339  0.37819864  0.99347142    -0.81600
O1523       O  0.64698812  0.43299036  0.99762742    -0.83300
O1524       O  0.54918543  0.34738258  0.94769291    -0.78900
O1525       O  0.60803203  0.42991910  0.01122593    -0.90600
O1526       O  0.63076478  0.34657235  0.08236651    -0.76500
O1527       O  0.59825674  0.34608542  0.99625418    -0.86000
O1528       O  0.63651400  0.37795253  0.01530488    -0.85700
O1529       O  0.58476200  0.37950611  0.92988274    -0.72500
O1530       O  0.61890448  0.40810293  0.94923504    -0.84600
Zr1531     Zr  0.64955383  0.34643016  0.88179363     2.26400
Zr1532     Zr  0.58778852  0.33716554  0.92266642     2.06300
Zr1533     Zr  0.65870280  0.39721390  0.96082768     2.10000
Zr1534     Zr  0.63821057  0.33606576  0.00857908     1.78800
O1535       O  0.67837664  0.42626524  0.91587070    -0.93400
O1536       O  0.61845517  0.30182843  0.03875682    -0.41200
O1537       O  0.66032580  0.35541002  0.95452407    -0.77900
O1538       O  0.62738699  0.32583108  0.93646732    -0.96600
O1539       O  0.60990198  0.35734348  0.86941993    -0.89900
O1540       O  0.64808523  0.38858918  0.88748601    -0.92700
C1541       C  0.61776941  0.36197141  0.10059461     1.01100
C1542       C  0.62740376  0.44165920  0.01016411     1.14000
C1543       C  0.54143310  0.36365948  0.97244835     1.04800
O1544       O  0.57362377  0.30212245  0.95954128    -0.94900
O1545       O  0.59844962  0.30391253  0.87600243    -0.90600
O1546       O  0.63726043  0.30686844  0.86114600    -0.83700
C1547       C  0.61761930  0.29591315  0.85968189     1.11400
O1548       O  0.58970071  0.43751998  0.88904087    -0.96800
Zr1549     Zr  0.60785789  0.39909898  0.87692479     1.88900
O1550       O  0.64282321  0.35956065  0.80677365    -0.73500
O1551       O  0.56073682  0.33423948  0.86190561    -0.52700
O1552       O  0.56912735  0.40206107  0.84386525    -0.97400
O1553       O  0.62863477  0.43080071  0.84006556    -0.54600
O1554       O  0.61139423  0.38417007  0.80495900    -0.74000
C1555       C  0.62642489  0.37084385  0.78669596     0.98400
O1556       O  0.67622916  0.32498173  0.83448649    -0.62800
O1557       O  0.68378358  0.40936753  0.02050606    -0.57600
O1558       O  0.69137551  0.34922316  0.90283447    -0.94300
O1559       O  0.69579565  0.37691689  0.95517304    -0.92700
O1560       O  0.67554069  0.33853047  0.04584970    -0.93100
O1561       O  0.66117478  0.30019181  0.99824726    -0.91900
C1562       C  0.70374293  0.36040672  0.93114487     1.17200
H1563       H  0.64243669  0.38359059  0.04259721     0.33100
H1564       H  0.62923939  0.30894231  0.93579388     0.44000
H1565       H  0.65852290  0.39584187  0.86670339     0.37500
H1566       H  0.56918993  0.38515789  0.92325678     0.34000
H1567       H  0.62779169  0.29762253  0.06467661     0.25800
H1568       H  0.54896848  0.32244861  0.87086797     0.31700
H1569       H  0.57127992  0.41248500  0.81854720     0.37600
H1570       H  0.67542253  0.32520691  0.06652488     0.32100
H1571       H  0.69932065  0.41245376  0.00770209     0.31000
H1572       H  0.69498577  0.42119492  0.91565357     0.32700
H1573       H  0.61691315  0.43770423  0.82000724     0.31600
H1574       H  0.67305470  0.30454625  0.97651798     0.35600
H1575       H  0.68715726  0.33691988  0.82291231     0.28300
H1576       H  0.56151646  0.40087118  0.06548669     0.32600
H1577       H  0.57975475  0.43525483  0.91476638     0.35400
H1578       H  0.68591923  0.39495399  0.03815705     0.28000
H1579       H  0.68592339  0.31476863  0.85344422     0.40900
H1580       H  0.58799503  0.29323538  0.96735876     0.31000
H1581       H  0.60354024  0.30804177  0.05035107     0.38600
H1582       H  0.63996661  0.42286442  0.82082063     0.30400
H1583       H  0.55223689  0.34949711  0.86134948     0.30500
H1584       H  0.55955138  0.41968534  0.02832972     0.30800
Zr1585     Zr  0.40530164  0.60931698  0.49528984     2.17500
O1586       O  0.42928181  0.58037180  0.53362130    -0.51600
O1587       O  0.39806967  0.61755412  0.57198258    -0.74800
O1588       O  0.44746721  0.61855994  0.49464049    -0.81600
O1589       O  0.35596948  0.56573766  0.47896471    -0.83300
O1590       O  0.45279865  0.65125568  0.45356577    -0.78900
O1591       O  0.39402236  0.56750992  0.50000276    -0.90600
O1592       O  0.37358032  0.64895776  0.57608551    -0.76500
O1593       O  0.40423335  0.65157645  0.49365472    -0.86000
O1594       O  0.36525720  0.62010555  0.50661813    -0.85700
O1595       O  0.41839615  0.62072771  0.42422458    -0.72500
O1596       O  0.38322315  0.59212399  0.43732239    -0.84600
Zr1597     Zr  0.35424961  0.65720800  0.37665487     2.26400
Zr1598     Zr  0.41584977  0.66318184  0.42241011     2.06300
Zr1599     Zr  0.34359809  0.60329652  0.44817351     2.10000
Zr1600     Zr  0.36444073  0.66232272  0.50449889     1.78800
O1601       O  0.32398447  0.57574516  0.39981686    -0.93400
O1602       O  0.38568230  0.69553367  0.53559389    -0.41200
O1603       O  0.34257273  0.64531792  0.44721229    -0.77900
O1604       O  0.37622301  0.67542023  0.43453153    -0.96600
O1605       O  0.39381584  0.64596846  0.36502924    -0.89900
O1606       O  0.35526298  0.61495625  0.37720560    -0.92700
C1607       C  0.38549963  0.63227636  0.59343618     1.01100
C1608       C  0.37471455  0.55621571  0.49433872     1.14000
C1609       C  0.46055147  0.63445989  0.47752378     1.04800
O1610       O  0.42971265  0.69712689  0.46317349    -0.94900
O1611       O  0.40903689  0.69782252  0.37720007    -0.90600
O1612       O  0.37080521  0.69538660  0.35727791    -0.83700
C1613       C  0.39064019  0.70609810  0.35847927     1.11400
O1614       O  0.41741456  0.56734456  0.37409093    -0.96800
Zr1615     Zr  0.39530084  0.60409354  0.36749118     1.88900
O1616       O  0.35898309  0.64719510  0.30036724    -0.73500
O1617       O  0.44488698  0.66645219  0.36548823    -0.52700
O1618       O  0.43274401  0.60761340  0.33075680    -0.97400
O1619       O  0.37579555  0.57017919  0.33500813    -0.54600
O1620       O  0.38620009  0.61813501  0.29645683    -0.74000
C1621       C  0.37263112  0.63346618  0.27908881     0.98400
O1622       O  0.32439903  0.68055210  0.33923521    -0.62800
O1623       O  0.31603190  0.59222979  0.50459761    -0.57600
O1624       O  0.31210526  0.65527893  0.39331964    -0.94300
O1625       O  0.30663873  0.62284499  0.43546030    -0.92700
O1626       O  0.32595648  0.66137581  0.53790652    -0.93100
O1627       O  0.34122450  0.69851203  0.50455445    -0.91900
C1628       C  0.29924908  0.64145156  0.41611651     1.17200
H1629       H  0.35901181  0.61374440  0.53295901     0.33100
H1630       H  0.37483091  0.69238972  0.43477686     0.44000
H1631       H  0.34511698  0.60857275  0.35505582     0.37500
H1632       H  0.43414198  0.61528115  0.41880632     0.34000
H1633       H  0.37712109  0.69941182  0.56237593     0.25800
H1634       H  0.45651399  0.67789775  0.37658377     0.31700
H1635       H  0.42999843  0.60107693  0.30156789     0.37600
H1636       H  0.32445291  0.64514258  0.54935044     0.32100
H1637       H  0.32570504  0.58602804  0.52868591     0.31000
H1638       H  0.32391660  0.56053417  0.41555560     0.32700
H1639       H  0.36382740  0.57682970  0.31519167     0.31600
H1640       H  0.33603119  0.70054430  0.47425448     0.35600
H1641       H  0.32386904  0.69584757  0.35465098     0.28300
H1642       H  0.43836085  0.58935590  0.55533736     0.32600
H1643       H  0.42139700  0.56262039  0.34427784     0.35400
H1644       H  0.30973692  0.60735225  0.51563951     0.28000
H1645       H  0.33118127  0.68440853  0.31079831     0.40900
H1646       H  0.44409396  0.70215831  0.44807000     0.31000
H1647       H  0.40074702  0.68882646  0.54584805     0.38600
H1648       H  0.36671067  0.56308844  0.35881536     0.30400
H1649       H  0.45322023  0.65110105  0.36556538     0.30500
H1650       H  0.44090829  0.57467767  0.51245057     0.30800
Zr1651     Zr  0.40519638  0.61301558  0.99897057     2.17500
O1652       O  0.43099118  0.58617525  0.03867632    -0.51600
O1653       O  0.39682390  0.62364439  0.07372845    -0.74800
O1654       O  0.44651834  0.62574832  0.99933523    -0.81600
O1655       O  0.35460379  0.56829246  0.99083230    -0.83300
O1656       O  0.45234331  0.65754067  0.95603697    -0.78900
O1657       O  0.39278682  0.57199861  0.01068888    -0.90600
O1658       O  0.37130845  0.65431929  0.07439656    -0.76500
O1659       O  0.40280306  0.65494759  0.99309471    -0.86000
O1660       O  0.36476465  0.62259676  0.00689721    -0.85700
O1661       O  0.41933169  0.62252503  0.92787715    -0.72500
O1662       O  0.38466938  0.59262206  0.94252881    -0.84600
Zr1663     Zr  0.35479311  0.65441778  0.87287211     2.26400
Zr1664     Zr  0.41531071  0.66474816  0.92154936     2.06300
Zr1665     Zr  0.34438555  0.60312937  0.94971269     2.10000
Zr1666     Zr  0.36255737  0.66452592  0.00063466     1.78800
O1667       O  0.32781867  0.57284587  0.90299031    -0.93400
O1668       O  0.38195001  0.69961101  0.02868969    -0.41200
O1669       O  0.34231712  0.64488837  0.94408080    -0.77900
O1670       O  0.37506959  0.67553582  0.92968364    -0.96600
O1671       O  0.39511301  0.64460316  0.86491201    -0.89900
O1672       O  0.35719675  0.61235137  0.87820142    -0.92700
C1673       C  0.38371847  0.63855896  0.09346436     1.01100
C1674       C  0.37352884  0.56024222  0.00767496     1.14000
C1675       C  0.45966471  0.64170738  0.98224783     1.04800
O1676       O  0.42432387  0.70052003  0.96163570    -0.94900
O1677       O  0.40804571  0.69686587  0.87113114    -0.90600
O1678       O  0.37029432  0.69236201  0.84999036    -0.83700
C1679       C  0.38973630  0.70376251  0.85051760     1.11400
O1680       O  0.42326451  0.56877440  0.88370183    -0.96800
Zr1681     Zr  0.39786747  0.60286517  0.87229486     1.88900
O1682       O  0.35939858  0.63966888  0.79905262    -0.73500
O1683       O  0.44817848  0.66763926  0.87200034    -0.52700
O1684       O  0.43515424  0.60495153  0.83478359    -0.97400
O1685       O  0.38065039  0.56649731  0.84485861    -0.54600
O1686       O  0.38921969  0.61331533  0.79904561    -0.74000
C1687       C  0.37430389  0.62644329  0.77955180     0.98400
O1688       O  0.32849760  0.67634501  0.82483113    -0.62800
O1689       O  0.31442594  0.59457350  0.00326092    -0.57600
O1690       O  0.31272473  0.65302590  0.89171050    -0.94300
O1691       O  0.30693476  0.62111475  0.93477847    -0.92700
O1692       O  0.32511577  0.66224843  0.03759723    -0.93100
O1693       O  0.33708488  0.69866453  0.99046317    -0.91900
C1694       C  0.29965556  0.63955924  0.91481976     1.17200
H1695       H  0.35843786  0.61688133  0.03377052     0.33100
H1696       H  0.37298541  0.69240433  0.92777496     0.44000
H1697       H  0.34772806  0.60478811  0.85621063     0.37500
H1698       H  0.43546417  0.61769053  0.92420048     0.34000
H1699       H  0.37300086  0.70380579  0.05486803     0.25800
H1700       H  0.44107867  0.66752609  0.84279880     0.31700
H1701       H  0.43708356  0.62188164  0.82776517     0.37600
H1702       H  0.32430526  0.64586048  0.04860836     0.32100
H1703       H  0.30764602  0.57927563  0.99431971     0.31000
H1704       H  0.32388283  0.55966127  0.92260557     0.32700
H1705       H  0.36883076  0.57153024  0.82322743     0.31600
H1706       H  0.32862467  0.69542603  0.96314162     0.35600
H1707       H  0.31671140  0.66491268  0.81421127     0.28300
H1708       H  0.43896655  0.59596366  0.06071258     0.32600
H1709       H  0.42493985  0.56755146  0.91543589     0.35400
H1710       H  0.32284377  0.59120025  0.03059400     0.28000
H1711       H  0.31972875  0.68761254  0.84310541     0.40900
H1712       H  0.43459406  0.70968214  0.94227534     0.31000
H1713       H  0.39724627  0.69396191  0.03988235     0.38600
H1714       H  0.37139061  0.56024454  0.86920175     0.30400
H1715       H  0.45416599  0.68390292  0.87570352     0.30500
H1716       H  0.44342285  0.58151397  0.01821007     0.30800
Zr1717     Zr  0.40906628  0.88806209  0.12525592     2.17500
O1718       O  0.43449513  0.91336925  0.08235615    -0.51600
O1719       O  0.40066633  0.87616235  0.05021193    -0.74800
O1720       O  0.45030349  0.87631932  0.12936772    -0.81600
O1721       O  0.36189871  0.93430101  0.13225808    -0.83300
O1722       O  0.45509093  0.84402220  0.17205052    -0.78900
O1723       O  0.40055042  0.93040894  0.11727844    -0.90600
O1724       O  0.37685751  0.84427682  0.04772704    -0.76500
O1725       O  0.40625003  0.84614282  0.13164139    -0.86000
O1726       O  0.36870872  0.87923522  0.11400238    -0.85700
O1727       O  0.42167428  0.87861047  0.19790791    -0.72500
O1728       O  0.38816365  0.90867136  0.18070146    -0.84600
Zr1729     Zr  0.35597610  0.84784121  0.24723729     2.26400
Zr1730     Zr  0.41747178  0.83646363  0.20428832     2.06300
Zr1731     Zr  0.34800038  0.89952877  0.16954058     2.10000
Zr1732     Zr  0.36601057  0.83720518  0.12111224     1.78800
O1733       O  0.33049038  0.92967664  0.21536129    -0.93400
O1734       O  0.38335744  0.80004247  0.09784431    -0.41200
O1735       O  0.34539866  0.85788722  0.17524797    -0.77900
O1736       O  0.37736671  0.82621161  0.19273905    -0.96600
O1737       O  0.39619208  0.85676257  0.25906538    -0.89900
O1738       O  0.35885666  0.88984940  0.24239999    -0.92700
C1739       C  0.38885283  0.86037095  0.02954323     1.01100
C1740       C  0.38149217  0.94254954  0.11900445     1.14000
C1741       C  0.46301688  0.86032802  0.14757575     1.04800
O1742       O  0.42941209  0.80033400  0.16794213    -0.94900
O1743       O  0.40756226  0.80453711  0.25387179    -0.90600
O1744       O  0.36951933  0.80944687  0.27242677    -0.83700
C1745       C  0.38884422  0.79781029  0.27326165     1.11400
O1746       O  0.42347490  0.93379051  0.24609640    -0.96800
Zr1747     Zr  0.39950250  0.89838459  0.25247814     1.88900
O1748       O  0.35893589  0.86209269  0.32171001    -0.73500
O1749       O  0.44744423  0.83412694  0.26038092    -0.52700
O1750       O  0.43729294  0.89610281  0.28926070    -0.97400
O1751       O  0.38041252  0.93342214  0.28181202    -0.54600
O1752       O  0.39092693  0.88546022  0.32464710    -0.74000
C1753       C  0.37489829  0.87324985  0.34269196     0.98400
O1754       O  0.32805315  0.82625634  0.29145297    -0.62800
O1755       O  0.31950624  0.91103777  0.11449923    -0.57600
O1756       O  0.31464171  0.85087738  0.22316561    -0.94300
O1757       O  0.31009030  0.88136958  0.17614772    -0.92700
O1758       O  0.33080890  0.84068522  0.07715459    -0.93100
O1759       O  0.33774614  0.80596293  0.13452037    -0.91900
C1760       C  0.30221144  0.86368516  0.19720746     1.17200
H1761       H  0.36284713  0.88475379  0.08650407     0.33100
H1762       H  0.37507559  0.80939272  0.19458751     0.44000
H1763       H  0.34889742  0.89746412  0.26355491     0.37500
H1764       H  0.43767738  0.88334311  0.20309014     0.34000
H1765       H  0.37634662  0.79704756  0.06909308     0.25800
H1766       H  0.45799923  0.82121220  0.25111065     0.31700
H1767       H  0.43730703  0.88057860  0.30393886     0.37600
H1768       H  0.33173880  0.82746624  0.05634806     0.32100
H1769       H  0.31463580  0.92728881  0.12210836     0.31000
H1770       H  0.32676601  0.94293403  0.19562486     0.32700
H1771       H  0.36918292  0.92755279  0.30350309     0.31600
H1772       H  0.32907387  0.81124694  0.16037127     0.35600
H1773       H  0.31668712  0.83811263  0.30207428     0.28300
H1774       H  0.44290608  0.90271302  0.06238848     0.32600
H1775       H  0.42516916  0.94013966  0.27570317     0.35400
H1776       H  0.32851766  0.91277549  0.08751061     0.28000
H1777       H  0.31902983  0.81608475  0.27148387     0.40900
H1778       H  0.43929063  0.79187414  0.18930958     0.31000
H1779       H  0.39993302  0.80380578  0.09179802     0.38600
H1780       H  0.37054723  0.93954873  0.25793580     0.30400
H1781       H  0.45683821  0.84866821  0.25707233     0.30500
H1782       H  0.44666166  0.91928534  0.10247576     0.30800
Zr1783     Zr  0.40449608  0.88991551  0.62629931     2.17500
O1784       O  0.42872748  0.91660533  0.58394775    -0.51600
O1785       O  0.39641470  0.88001295  0.55041307    -0.74800
O1786       O  0.44615800  0.87850571  0.62654747    -0.81600
O1787       O  0.35678949  0.93554316  0.64569272    -0.83300
O1788       O  0.45115411  0.84381132  0.66228701    -0.78900
O1789       O  0.39429018  0.93222383  0.62258901    -0.90600
O1790       O  0.36927996  0.85094760  0.54722774    -0.76500
O1791       O  0.40054161  0.84795000  0.62731408    -0.86000
O1792       O  0.36358082  0.88212217  0.61860262    -0.85700
O1793       O  0.41931078  0.87739238  0.69592144    -0.72500
O1794       O  0.38533282  0.90845814  0.68626482    -0.84600
Zr1795     Zr  0.35454436  0.84504779  0.74863747     2.26400
Zr1796     Zr  0.41430773  0.83528102  0.69696280     2.06300
Zr1797     Zr  0.34478000  0.89957572  0.67965696     2.10000
Zr1798     Zr  0.35974697  0.84027803  0.62005125     1.78800
O1799       O  0.33158888  0.93046845  0.72852521    -0.93400
O1800       O  0.37551505  0.80376094  0.59033323    -0.41200
O1801       O  0.34047675  0.85785401  0.67983342    -0.77900
O1802       O  0.37364563  0.82610764  0.68820616    -0.96600
O1803       O  0.39522492  0.85356365  0.75656672    -0.89900
O1804       O  0.35832671  0.88698850  0.74895664    -0.92700
C1805       C  0.38286451  0.86594020  0.52943473     1.01100
C1806       C  0.37544783  0.94422486  0.62947076     1.14000
C1807       C  0.45898455  0.86135143  0.64067352     1.04800
O1808       O  0.42690623  0.80044900  0.65730450    -0.94900
O1809       O  0.40526270  0.80119870  0.74179763    -0.90600
O1810       O  0.36741930  0.80484169  0.76347471    -0.83700
C1811       C  0.38681518  0.79343126  0.76062629     1.11400
O1812       O  0.42563036  0.92872190  0.74493896    -0.96800
Zr1813     Zr  0.39920144  0.89543249  0.75463594     1.88900
O1814       O  0.36234524  0.85697522  0.82394364    -0.73500
O1815       O  0.44484873  0.83167630  0.75181369    -0.52700
O1816       O  0.43660761  0.89027747  0.79171413    -0.97400
O1817       O  0.38250265  0.93126520  0.78563430    -0.54600
O1818       O  0.39100332  0.88459990  0.82734200    -0.74000
C1819       C  0.37667005  0.87037706  0.84490209     0.98400
O1820       O  0.32880100  0.82183000  0.79466093    -0.62800
O1821       O  0.31424650  0.91012385  0.62774545    -0.57600
O1822       O  0.31217009  0.85012013  0.73168813    -0.94300
O1823       O  0.30686249  0.88658030  0.70266534    -0.92700
O1824       O  0.32231230  0.84813678  0.58475174    -0.93100
O1825       O  0.33147397  0.80828373  0.62450919    -0.91900
C1826       C  0.29906351  0.86697887  0.71701600     1.17200
H1827       H  0.35726761  0.88887829  0.59241595     0.33100
H1828       H  0.37115373  0.80928761  0.68712813     0.44000
H1829       H  0.34927463  0.89394889  0.77194390     0.37500
H1830       H  0.43543600  0.88169757  0.70062066     0.34000
H1831       H  0.36766514  0.80203197  0.56196218     0.25800
H1832       H  0.45471976  0.81831256  0.74212949     0.31700
H1833       H  0.43614184  0.87404767  0.80352256     0.37600
H1834       H  0.31497398  0.86070696  0.60232066     0.32100
H1835       H  0.30830696  0.92564559  0.63757446     0.31000
H1836       H  0.31545133  0.93426651  0.71891881     0.32700
H1837       H  0.36975655  0.92598597  0.80484064     0.31600
H1838       H  0.32346181  0.81082078  0.65238140     0.35600
H1839       H  0.31794131  0.83328540  0.80812904     0.28300
H1840       H  0.43724044  0.90648993  0.56321756     0.32600
H1841       H  0.42769040  0.93575118  0.77393745     0.35400
H1842       H  0.32251387  0.91360070  0.60051310     0.28000
H1843       H  0.31892652  0.81236728  0.77486901     0.40900
H1844       H  0.44084271  0.79462477  0.67326673     0.31000
H1845       H  0.39199488  0.80740003  0.58322647     0.38600
H1846       H  0.37443144  0.93919224  0.76125979     0.30400
H1847       H  0.45482422  0.84577720  0.74800133     0.30500
H1848       H  0.44092774  0.92246088  0.60404040     0.30800
Zr1849     Zr  0.34951241  0.15202551  0.00233837     2.17500
O1850       O  0.32346428  0.17816420  0.96169370    -0.51600
O1851       O  0.36197718  0.14668474  0.92713643    -0.74800
O1852       O  0.35735673  0.19440524  0.01476373    -0.81600
O1853       O  0.30765798  0.09927531  0.00187595    -0.83300
O1854       O  0.39554157  0.19440822  0.03158762    -0.78900
O1855       O  0.30956562  0.13868297  0.98852436    -0.90600
O1856       O  0.39167955  0.12011470  0.92314690    -0.76500
O1857       O  0.39115480  0.14890452  0.00618157    -0.86000
O1858       O  0.35894155  0.11134651  0.99083622    -0.85700
O1859       O  0.35916843  0.16434584  0.07516650    -0.72500
O1860       O  0.32972945  0.12949139  0.05710169    -0.84600
Zr1861     Zr  0.39280019  0.09951735  0.12401181     2.26400
Zr1862     Zr  0.40102335  0.16079230  0.07825802     2.06300
Zr1863     Zr  0.34089844  0.08925282  0.04718721     2.10000
Zr1864     Zr  0.40034194  0.10825096  0.99575958     1.78800
O1865       O  0.30794518  0.07572867  0.09003818    -0.93400
O1866       O  0.43656677  0.12572964  0.96970085    -0.41200
O1867       O  0.38254308  0.08644318  0.05263902    -0.77900
O1868       O  0.41195890  0.12048487  0.06607461    -0.96600
O1869       O  0.38192663  0.13966474  0.13474889    -0.89900
O1870       O  0.35099394  0.10082981  0.11923574    -0.92700
C1871       C  0.37665356  0.13394940  0.90579769     1.01100
C1872       C  0.29906778  0.11864417  0.98716545     1.14000
C1873       C  0.37613537  0.20521834  0.02656337     1.04800
O1874       O  0.43794179  0.17723846  0.05363232    -0.94900
O1875       O  0.43515819  0.15198011  0.12155151    -0.90600
O1876       O  0.43289171  0.11317533  0.13942940    -0.83700
C1877       C  0.44400756  0.13291078  0.13673311     1.11400
O1878       O  0.30519230  0.16491804  0.11612825    -0.96800
Zr1879     Zr  0.34020335  0.14107872  0.12853105     1.88900
O1880       O  0.38130237  0.10795220  0.19905024    -0.73500
O1881       O  0.39937899  0.19220867  0.13180063    -0.52700
O1882       O  0.33676114  0.17671227  0.17206163    -0.97400
O1883       O  0.30806717  0.11767146  0.15704790    -0.54600
O1884       O  0.35162883  0.13451536  0.20166358    -0.74000
C1885       C  0.36698340  0.12143091  0.21976214     0.98400
O1886       O  0.41494647  0.07000414  0.16480007    -0.62800
O1887       O  0.33494200  0.05765199  0.99500134    -0.57600
O1888       O  0.38565524  0.05691155  0.11415126    -0.94300
O1889       O  0.35476707  0.05092674  0.06916613    -0.92700
O1890       O  0.39358422  0.07185281  0.95593193    -0.93100
O1891       O  0.43311260  0.08068564  0.99900204    -0.91900
C1892       C  0.37136922  0.04334517  0.09338291     1.17200
H1893       H  0.35312746  0.10581175  0.96332086     0.33100
H1894       H  0.42870423  0.11842854  0.06527754     0.44000
H1895       H  0.34404998  0.09061114  0.14055166     0.37500
H1896       H  0.35418031  0.18011246  0.08266571     0.34000
H1897       H  0.43194848  0.14147573  0.95860657     0.25800
H1898       H  0.38358749  0.19926719  0.12869698     0.31700
H1899       H  0.34325549  0.18960524  0.15427067     0.37600
H1900       H  0.38501183  0.06154867  0.97620612     0.32100
H1901       H  0.31839759  0.05288360  0.99858047     0.31000
H1902       H  0.30713125  0.05853728  0.08455256     0.32700
H1903       H  0.29611359  0.11755580  0.13381210     0.31600
H1904       H  0.43344581  0.07516542  0.02930809     0.35600
H1905       H  0.42951540  0.06733849  0.14827997     0.28300
H1906       H  0.33378122  0.18843183  0.94433876     0.32600
H1907       H  0.29750800  0.15786040  0.09053700     0.35400
H1908       H  0.33543538  0.06535817  0.96636571     0.28000
H1909       H  0.42008518  0.07807918  0.19151730     0.40900
H1910       H  0.43920291  0.17219263  0.02317794     0.31000
H1911       H  0.44592145  0.12911030  0.99593351     0.38600
H1912       H  0.30117627  0.12763457  0.17996718     0.30400
H1913       H  0.39906603  0.18394443  0.15994061     0.30500
H1914       H  0.31628159  0.18877705  0.98331396     0.30800
Zr1915     Zr  0.34878224  0.15098889  0.50006407     2.17500
O1916       O  0.32318736  0.17605709  0.45625128    -0.51600
O1917       O  0.36254083  0.14368085  0.42596702    -0.74800
O1918       O  0.35761830  0.19355706  0.50882131    -0.81600
O1919       O  0.30352977  0.09961717  0.51028999    -0.83300
O1920       O  0.39584346  0.19280169  0.52458991    -0.78900
O1921       O  0.30881905  0.13717806  0.48696244    -0.90600
O1922       O  0.39064167  0.11536716  0.42385021    -0.76500
O1923       O  0.39021494  0.14644709  0.50401438    -0.86000
O1924       O  0.35662579  0.10978144  0.49285075    -0.85700
O1925       O  0.35896073  0.16498707  0.57156599    -0.72500
O1926       O  0.32885829  0.13124555  0.55826874    -0.84600
Zr1927     Zr  0.39116247  0.10069991  0.62615977     2.26400
Zr1928     Zr  0.40064475  0.16043504  0.57456294     2.06300
Zr1929     Zr  0.33818561  0.09021278  0.55207461     2.10000
Zr1930     Zr  0.39789945  0.10518311  0.49755701     1.78800
O1931       O  0.30441208  0.07883420  0.59482473    -0.93400
O1932       O  0.43461312  0.12042057  0.46910758    -0.41200
O1933       O  0.37983985  0.08544265  0.55676631    -0.77900
O1934       O  0.41006255  0.11954973  0.56588707    -0.96600
O1935       O  0.38198025  0.14147053  0.63408442    -0.89900
O1936       O  0.34947523  0.10356758  0.62246649    -0.92700
C1937       C  0.37672135  0.12991088  0.40552018     1.01100
C1938       C  0.29648090  0.11827279  0.49072384     1.14000
C1939       C  0.37662441  0.20407963  0.52051779     1.04800
O1940       O  0.43819624  0.17560433  0.55045351    -0.94900
O1941       O  0.43454770  0.15030233  0.61767716    -0.90600
O1942       O  0.43174766  0.11227180  0.63998966    -0.83700
C1943       C  0.44319187  0.13155975  0.63485714     1.11400
O1944       O  0.30583069  0.16962650  0.62279251    -0.96800
Zr1945     Zr  0.34031509  0.14435165  0.62862669     1.88900
O1946       O  0.37968042  0.10942847  0.70077722    -0.73500
O1947       O  0.39729822  0.19383630  0.62363824    -0.52700
O1948       O  0.34316603  0.18304409  0.66262817    -0.97400
O1949       O  0.30655640  0.12377024  0.65809586    -0.54600
O1950       O  0.35082231  0.13694400  0.70232656    -0.74000
C1951       C  0.36564919  0.12341295  0.72091598     0.98400
O1952       O  0.41825916  0.07556418  0.66671329    -0.62800
O1953       O  0.33261591  0.05873314  0.49943121    -0.57600
O1954       O  0.38167826  0.05863713  0.62275539    -0.94300
O1955       O  0.34908830  0.05246387  0.58209797    -0.92700
O1956       O  0.38813287  0.06775028  0.46347088    -0.93100
O1957       O  0.43035934  0.07732284  0.50280329    -0.91900
C1958       C  0.36602962  0.04517022  0.60589025     1.17200
H1959       H  0.35056093  0.10378560  0.46593830     0.33100
H1960       H  0.42672845  0.11693189  0.56496624     0.44000
H1961       H  0.34226614  0.09427097  0.64488784     0.37500
H1962       H  0.35445634  0.18103346  0.57784457     0.34000
H1963       H  0.43054694  0.13602320  0.45667784     0.25800
H1964       H  0.39199963  0.18697496  0.65125798     0.31700
H1965       H  0.33686732  0.18095114  0.69205926     0.37600
H1966       H  0.39764156  0.06730170  0.43687633     0.32100
H1967       H  0.31757482  0.05131656  0.50743926     0.31000
H1968       H  0.29947323  0.06345901  0.58271712     0.32700
H1969       H  0.29428049  0.12487799  0.63550343     0.31600
H1970       H  0.42963307  0.07124400  0.53271136     0.35600
H1971       H  0.40858884  0.06663533  0.68746978     0.28300
H1972       H  0.33372855  0.18587789  0.43849216     0.32600
H1973       H  0.30413948  0.17276814  0.59151564     0.35400
H1974       H  0.32929042  0.06673984  0.47166714     0.28000
H1975       H  0.42413695  0.06364259  0.64603337     0.40900
H1976       H  0.43967699  0.16993961  0.52039277     0.31000
H1977       H  0.44428542  0.12417542  0.49477500     0.38600
H1978       H  0.30089332  0.13397175  0.68179217     0.30400
H1979       H  0.41366187  0.19868790  0.62931279     0.30500
H1980       H  0.31575906  0.18719852  0.47667053     0.30800
Zr1981     Zr  0.15391483  0.15217759  0.39346464     2.17500
O1982       O  0.17866276  0.17847723  0.43604423    -0.51600
O1983       O  0.14109333  0.14667300  0.46882360    -0.74800
O1984       O  0.14578403  0.19442240  0.37984359    -0.81600
O1985       O  0.19678977  0.10046224  0.39415348    -0.83300
O1986       O  0.10788032  0.19453469  0.36132120    -0.78900
O1987       O  0.19438122  0.14007146  0.40550902    -0.90600
O1988       O  0.11211203  0.11956136  0.47279752    -0.76500
O1989       O  0.11240978  0.14946790  0.38775005    -0.86000
O1990       O  0.14459966  0.11156867  0.40567654    -0.85700
O1991       O  0.14540581  0.16408035  0.31982557    -0.72500
O1992       O  0.17392046  0.12919679  0.33935414    -0.84600
Zr1993     Zr  0.11176101  0.09934619  0.27204909     2.26400
Zr1994     Zr  0.10366868  0.16083122  0.31472391     2.06300
Zr1995     Zr  0.16321417  0.08900815  0.35029823     2.10000
Zr1996     Zr  0.10319563  0.10898028  0.39966963     1.78800
O1997       O  0.19787513  0.07563854  0.31187258    -0.93400
O1998       O  0.06834678  0.12940002  0.42553375    -0.41200
O1999       O  0.12148072  0.08638061  0.34397635    -0.77900
O2000       O  0.09234263  0.12083851  0.32873754    -0.96600
O2001       O  0.12284431  0.13908493  0.25917280    -0.89900
O2002       O  0.15345409  0.10037010  0.27801211    -0.92700
C2003       C  0.12667995  0.13370047  0.49027638     1.01100
C2004       C  0.20520660  0.12018388  0.40758594     1.14000
C2005       C  0.12721939  0.20526758  0.36662653     1.04800
O2006       O  0.06776048  0.18221079  0.33019687    -0.94900
O2007       O  0.06872607  0.15142353  0.27443752    -0.90600
O2008       O  0.07220637  0.11327475  0.25332439    -0.83700
C2009       C  0.06052930  0.13265763  0.25723108     1.11400
O2010       O  0.20039973  0.16273312  0.27723449    -0.96800
Zr2011     Zr  0.16446754  0.14025053  0.26700222     1.88900
O2012       O  0.12268413  0.10700587  0.19668315    -0.73500
O2013       O  0.11015719  0.18878576  0.25629499    -0.52700
O2014       O  0.16581759  0.17723791  0.22700235    -0.97400
O2015       O  0.19721835  0.11691328  0.24001102    -0.54600
O2016       O  0.15416330  0.13127077  0.19359210    -0.74000
C2017       C  0.13799616  0.11909573  0.17578190     0.98400
O2018       O  0.08772375  0.06820495  0.24051967    -0.62800
O2019       O  0.16661998  0.05834761  0.40523771    -0.57600
O2020       O  0.12132555  0.05739154  0.27577902    -0.94300
O2021       O  0.15260576  0.05101130  0.32014184    -0.92700
O2022       O  0.10738682  0.07172685  0.43827575    -0.93100
O2023       O  0.06834656  0.08436460  0.39677251    -0.91900
C2024       C  0.13647977  0.04388270  0.29432303     1.17200
H2025       H  0.15024895  0.10615962  0.43337544     0.33100
H2026       H  0.07558864  0.11888228  0.32890876     0.44000
H2027       H  0.16058981  0.08993489  0.25713916     0.37500
H2028       H  0.15052815  0.17977230  0.31217557     0.34000
H2029       H  0.07428037  0.14260146  0.44337548     0.25800
H2030       H  0.09433623  0.19487009  0.24907888     0.31700
H2031       H  0.17627949  0.17401857  0.20230732     0.37600
H2032       H  0.11411714  0.06063637  0.41698341     0.32100
H2033       H  0.18238248  0.05143492  0.40088583     0.31000
H2034       H  0.20051881  0.05927490  0.32205284     0.32700
H2035       H  0.20909636  0.11715051  0.26338555     0.31600
H2036       H  0.06709715  0.07939708  0.36624609     0.35600
H2037       H  0.07349680  0.06739895  0.25859706     0.28300
H2038       H  0.16779096  0.18868205  0.45246817     0.32600
H2039       H  0.20402525  0.16137697  0.30840173     0.35400
H2040       H  0.16784280  0.06686016  0.43301373     0.28000
H2041       H  0.08225316  0.07441387  0.21234333     0.40900
H2042       H  0.06116078  0.17425489  0.35579633     0.31000
H2043       H  0.06161253  0.13714803  0.39964942     0.38600
H2044       H  0.20404497  0.12659182  0.21666352     0.30400
H2045       H  0.11821672  0.20233304  0.26988610     0.30500
H2046       H  0.18620792  0.18914774  0.41499501     0.30800
Zr2047     Zr  0.15623313  0.15018755  0.89505503     2.17500
O2048       O  0.18228872  0.17501769  0.93797957    -0.51600
O2049       O  0.14325547  0.14414188  0.97021517    -0.74800
O2050       O  0.14944038  0.19293812  0.88285055    -0.81600
O2051       O  0.19929132  0.09586506  0.88983211    -0.83300
O2052       O  0.11120385  0.19272467  0.86795947    -0.78900
O2053       O  0.19544967  0.13434907  0.90864262    -0.90600
O2054       O  0.11319629  0.11811355  0.97297979    -0.76500
O2055       O  0.11457412  0.14854581  0.88960455    -0.86000
O2056       O  0.14596279  0.10976009  0.90534341    -0.85700
O2057       O  0.14748974  0.16325040  0.82191500    -0.72500
O2058       O  0.17577661  0.12769198  0.83970092    -0.84600
Zr2059     Zr  0.11290364  0.09993001  0.77122279     2.26400
Zr2060     Zr  0.10556054  0.16094026  0.81715739     2.06300
Zr2061     Zr  0.16407159  0.08760565  0.84888318     2.10000
Zr2062     Zr  0.10451000  0.10815448  0.89955275     1.78800
O2063       O  0.19620090  0.07196545  0.80613526    -0.93400
O2064       O  0.06984934  0.12910861  0.92496240    -0.41200
O2065       O  0.12235208  0.08610418  0.84268756    -0.77900
O2066       O  0.09386566  0.12092215  0.82920668    -0.96600
O2067       O  0.12450183  0.13975350  0.76066139    -0.89900
O2068       O  0.15463511  0.10005418  0.77698143    -0.92700
C2069       C  0.12834062  0.13141179  0.99097303     1.01100
C2070       C  0.20707300  0.11481246  0.90716010     1.14000
C2071       C  0.13059122  0.20368919  0.87070990     1.04800
O2072       O  0.06887707  0.18134099  0.83130288    -0.94900
O2073       O  0.07061399  0.15084242  0.77617384    -0.90600
O2074       O  0.07279021  0.11268441  0.75477327    -0.83700
C2075       C  0.06161986  0.13225933  0.75912843     1.11400
O2076       O  0.20427588  0.15776475  0.78286451    -0.96800
Zr2077     Zr  0.16621633  0.14006104  0.76798053     1.88900
O2078       O  0.12377049  0.10978528  0.69622957    -0.73500
O2079       O  0.11233614  0.19195462  0.76430405    -0.52700
O2080       O  0.17063577  0.17859639  0.73398027    -0.97400
O2081       O  0.19688734  0.11794550  0.73090960    -0.54600
O2082       O  0.15317173  0.13650694  0.69478100    -0.74000
C2083       C  0.13774514  0.12384458  0.67606386     0.98400
O2084       O  0.09019740  0.06968627  0.73395532    -0.62800
O2085       O  0.16858414  0.05722167  0.90410917    -0.57600
O2086       O  0.12082605  0.05759149  0.77617760    -0.94300
O2087       O  0.15005863  0.04999901  0.82407026    -0.92700
O2088       O  0.10796781  0.07076980  0.93789154    -0.93100
O2089       O  0.06990732  0.08326717  0.89489934    -0.91900
C2090       C  0.13431840  0.04337868  0.79723281     1.17200
H2091       H  0.15145142  0.10393094  0.93269017     0.33100
H2092       H  0.07713277  0.11911240  0.82995392     0.44000
H2093       H  0.16134992  0.08966942  0.75576126     0.37500
H2094       H  0.15281906  0.17894722  0.81476564     0.34000
H2095       H  0.06487149  0.12033253  0.95096038     0.25800
H2096       H  0.10750605  0.18496382  0.73640531     0.31700
H2097       H  0.15457847  0.18511268  0.73192865     0.37600
H2098       H  0.11637236  0.06019887  0.91776814     0.32100
H2099       H  0.18441897  0.05054744  0.89943363     0.31000
H2100       H  0.20103652  0.05733427  0.82127466     0.32700
H2101       H  0.20346567  0.10708501  0.75286924     0.31600
H2102       H  0.06996869  0.07716094  0.86499313     0.35600
H2103       H  0.07629734  0.06686725  0.75219510     0.28300
H2104       H  0.17195573  0.18569023  0.95459395     0.32600
H2105       H  0.21194027  0.15956871  0.75448409     0.35400
H2106       H  0.16984309  0.06577560  0.93182774     0.28000
H2107       H  0.08402816  0.07725059  0.70741400     0.40900
H2108       H  0.06375999  0.17519897  0.85961575     0.31000
H2109       H  0.07573225  0.14432176  0.93631001     0.38600
H2110       H  0.18883144  0.10759848  0.70986930     0.30400
H2111       H  0.10021731  0.20401879  0.77038802     0.30500
H2112       H  0.19039389  0.18535150  0.91709035     0.30800
C2113       C  0.14947370  0.13950187  0.55797718    -0.12500
C2114       C  0.12820173  0.13339215  0.53828860     0.04500
C2115       C  0.11001033  0.12447451  0.56466427    -0.07800
C2116       C  0.11380712  0.12098319  0.60889450    -0.08600
C2117       C  0.13526694  0.12659544  0.62842255    -0.03100
C2118       C  0.15317233  0.13633192  0.60228772     0.03700
N2119       N  0.17555177  0.14260000  0.61954995     0.66200
H2120       H  0.16378814  0.14612009  0.53865012     0.15100
H2121       H  0.09952147  0.11432476  0.62824935     0.14800
N2122       N  0.08719689  0.11966830  0.54776396     0.73900
O2123       O  0.19224110  0.12804513  0.61656051    -0.39500
O2124       O  0.18014196  0.16414705  0.62532838    -0.39500
O2125       O  0.08118608  0.09848428  0.54200569    -0.40200
O2126       O  0.07148271  0.13524377  0.55146804    -0.40200
C2127       C  0.11352751  0.12121122  0.10941616    -0.12500
C2128       C  0.13592035  0.12073539  0.12813084     0.04500
C2129       C  0.15557155  0.12439768  0.10136976    -0.07800
C2130       C  0.15243504  0.12942661  0.05748117    -0.08600
C2131       C  0.13005350  0.12999674  0.03871148    -0.03100
C2132       C  0.11041843  0.12543403  0.06521551     0.03700
N2133       N  0.08713112  0.12507708  0.04814391     0.66200
H2134       H  0.09819919  0.11865673  0.12933972     0.15100
H2135       H  0.16778901  0.13158110  0.03746041     0.14800
N2136       N  0.17889943  0.12119561  0.11723658     0.73900
O2137       O  0.07454522  0.14331534  0.05171326    -0.39500
O2138       O  0.07733268  0.10540124  0.04220496    -0.39500
O2139       O  0.18865138  0.10136145  0.11226052    -0.40200
O2140       O  0.19150235  0.13909996  0.12376538    -0.40200
C2141       C  0.23478634  0.10060926  0.45415341    -0.12500
C2142       C  0.22872041  0.11977188  0.42771995     0.04500
C2143       C  0.24489669  0.13831438  0.42257545    -0.07800
C2144       C  0.26660857  0.13726430  0.44340759    -0.08600
C2145       C  0.27278888  0.11822289  0.47030584    -0.03100
C2146       C  0.25633388  0.09974695  0.47586284     0.03700
N2147       N  0.26054295  0.08038429  0.50447348     0.66200
H2148       H  0.22238215  0.08642360  0.45909626     0.15100
H2149       H  0.27873894  0.15162081  0.43807320     0.14800
N2150       N  0.24001366  0.15812895  0.39543394     0.73900
O2151       O  0.25100223  0.08059654  0.54109229    -0.39500
O2152       O  0.26720749  0.06091598  0.48897231    -0.39500
O2153       O  0.23399480  0.17735618  0.41270941    -0.40200
O2154       O  0.24857348  0.15851336  0.35800909    -0.40200
C2155       C  0.35272813  0.13693432  0.83898284    -0.12500
C2156       C  0.37478119  0.13332717  0.85802504     0.04500
C2157       C  0.39354992  0.12589988  0.83153263    -0.07800
C2158       C  0.38980679  0.12183416  0.78753979    -0.08600
C2159       C  0.36775556  0.12537971  0.76851923    -0.03100
C2160       C  0.34902298  0.13306442  0.79489363     0.03700
N2161       N  0.32585841  0.13619975  0.77811944     0.66200
H2162       H  0.33792600  0.14202025  0.85869085     0.15100
H2163       H  0.40457662  0.11662819  0.76785194     0.14800
N2164       N  0.41680836  0.12329626  0.84811730     0.73900
O2165       O  0.31908096  0.15671882  0.76810663    -0.39500
O2166       O  0.31072053  0.12055783  0.78556910    -0.39500
O2167       O  0.42525143  0.10281865  0.85260114    -0.40200
O2168       O  0.43056932  0.14063068  0.84588563    -0.40200
C2169       C  0.39042479  0.11730085  0.28719371    -0.12500
C2170       C  0.36903753  0.12313910  0.26747136     0.04500
C2171       C  0.35076297  0.13221468  0.29355317    -0.07800
C2172       C  0.35434330  0.13544854  0.33774691    -0.08600
C2173       C  0.37557406  0.12929441  0.35763940    -0.03100
C2174       C  0.39383941  0.12005924  0.33164991     0.03700
N2175       N  0.41605888  0.11338797  0.34933542     0.66200
H2176       H  0.40481847  0.11069138  0.26796088     0.15100
H2177       H  0.33983772  0.14185088  0.35693398     0.14800
N2178       N  0.32794111  0.13709995  0.27657889     0.73900
O2179       O  0.42004744  0.09180038  0.35643597    -0.39500
O2180       O  0.43319125  0.12713322  0.34449033    -0.39500
O2181       O  0.31213078  0.12180832  0.28121839    -0.40200
O2182       O  0.32204734  0.15829542  0.27001481    -0.40200
C2183       C  0.23754970  0.13477831  0.95078857    -0.12500
C2184       C  0.23084196  0.11471671  0.92721193     0.04500
C2185       C  0.24693899  0.09563137  0.92421800    -0.07800
C2186       C  0.26893538  0.09728092  0.94431929    -0.08600
C2187       C  0.27552555  0.11760433  0.96720345    -0.03100
C2188       C  0.25945665  0.13642051  0.97044694     0.03700
N2189       N  0.26457615  0.15713271  0.99486375     0.66200
H2190       H  0.22564971  0.14955425  0.95455143     0.15100
H2191       H  0.28110722  0.08264442  0.94137194     0.14800
N2192       N  0.24168977  0.07460815  0.90064696     0.73900
O2193       O  0.26983884  0.17578865  0.97495216    -0.39500
O2194       O  0.25681801  0.15869154  0.03278201    -0.39500
O2195       O  0.25024425  0.07202537  0.86349866    -0.40200
O2196       O  0.23509075  0.05655809  0.92107249    -0.40200
C2197       C  0.35198582  0.98000737  0.61463327    -0.12500
C2198       C  0.37434489  0.96989671  0.62002273     0.04500
C2199       C  0.39400753  0.98496279  0.62109633    -0.07800
C2200       C  0.39086144  0.00943503  0.61691703    -0.08600
C2201       C  0.36839661  0.01939627  0.61234823    -0.03100
C2202       C  0.34879573  0.00432754  0.61175393     0.03700
N2203       N  0.32537575  0.01331899  0.61160293     0.66200
H2204       H  0.33649971  0.96898856  0.61416443     0.15100
H2205       H  0.40615563  0.02071119  0.61738641     0.14800
N2206       N  0.41709940  0.97608538  0.62865042     0.73900
O2207       O  0.31374357  0.01298359  0.57689833    -0.39500
O2208       O  0.31456938  0.01460810  0.64692904    -0.39500
O2209       O  0.43096509  0.97433302  0.59726654    -0.40200
O2210       O  0.42538704  0.97677428  0.66643845    -0.40200
C2211       C  0.36027798  0.97694500  0.08966184    -0.12500
C2212       C  0.38125546  0.96784998  0.10654256     0.04500
C2213       C  0.39967615  0.98367352  0.11587252    -0.07800
C2214       C  0.39610224  0.00808066  0.11109379    -0.08600
C2215       C  0.37454529  0.01726601  0.09655937    -0.03100
C2216       C  0.35668369  0.00114971  0.08461570     0.03700
N2217       N  0.33426151  0.00874810  0.06919184     0.66200
H2218       H  0.34601929  0.96511846  0.08156609     0.15100
H2219       H  0.41031680  0.01990830  0.11929526     0.14800
N2220       N  0.42176861  0.97559942  0.13191761     0.73900
O2221       O  0.33005943  0.00768218  0.02924634    -0.39500
O2222       O  0.31727835  0.00895412  0.09506202    -0.39500
O2223       O  0.43886306  0.97466071  0.10634862    -0.40200
O2224       O  0.42575992  0.97664995  0.17192872    -0.40200
C2225       C  0.37662588  0.84595784  0.91125986    -0.12500
C2226       C  0.37818383  0.86837035  0.89244904     0.04500
C2227       C  0.38420905  0.88781794  0.91885633    -0.07800
C2228       C  0.38864344  0.88447683  0.96283449    -0.08600
C2229       C  0.38709062  0.86207527  0.98181983    -0.03100
C2230       C  0.38100359  0.84259772  0.95534104     0.03700
N2231       N  0.37981485  0.81912729  0.97206979     0.66200
H2232       H  0.37269659  0.83073442  0.89136045     0.15100
H2233       H  0.39254842  0.89978744  0.98251267     0.14800
N2234       N  0.38495145  0.91131690  0.90214701     0.73900
O2235       O  0.35999216  0.81038959  0.97992834    -0.39500
O2236       O  0.39700473  0.80542708  0.96648388    -0.39500
O2237       O  0.36743008  0.92461351  0.90748522    -0.40200
O2238       O  0.40458426  0.92049963  0.89437294    -0.40200
C2239       C  0.39751598  0.87674007  0.41115849    -0.12500
C2240       C  0.37607714  0.87146342  0.39064906     0.04500
C2241       C  0.35719745  0.86393264  0.41646719    -0.07800
C2242       C  0.36006659  0.86214834  0.46126596    -0.08600
C2243       C  0.38146150  0.86762237  0.48163905    -0.03100
C2244       C  0.40037715  0.87487963  0.45587222     0.03700
N2245       N  0.42296349  0.87943560  0.47395513     0.66200
H2246       H  0.41256763  0.88194415  0.39230460     0.15100
H2247       H  0.34515438  0.85677411  0.48035248     0.14800
N2248       N  0.33478480  0.85859399  0.39835520     0.73900
O2249       O  0.43783895  0.86291562  0.47509226    -0.39500
O2250       O  0.42999639  0.90049193  0.47613896    -0.39500
O2251       O  0.32897930  0.83725132  0.39402530    -0.40200
O2252       O  0.31897553  0.87420550  0.39911220    -0.40200
C2253       C  0.37086456  0.73224693  0.80021544    -0.12500
C2254       C  0.39038761  0.72639076  0.82599034     0.04500
C2255       C  0.40919842  0.74265673  0.82826810    -0.07800
C2256       C  0.40802077  0.76385757  0.80501954    -0.08600
C2257       C  0.38807452  0.76987899  0.78086792    -0.03100
C2258       C  0.36932778  0.75380224  0.77863122     0.03700
N2259       N  0.34843379  0.75897636  0.75485683     0.66200
H2260       H  0.35620035  0.72025533  0.79730417     0.15100
H2261       H  0.42236581  0.77627043  0.80770952     0.14800
N2262       N  0.42888802  0.73900132  0.85610361     0.73900
O2263       O  0.34643414  0.75126744  0.71685849    -0.39500
O2264       O  0.33017259  0.76446428  0.77533155    -0.39500
O2265       O  0.44814938  0.73275838  0.83986388    -0.40200
O2266       O  0.42893919  0.74884116  0.89260288    -0.40200
C2267       C  0.36399309  0.64129273  0.66083178    -0.12500
C2268       C  0.38292359  0.62963802  0.64097268     0.04500
C2269       C  0.39774951  0.61550370  0.66692495    -0.07800
C2270       C  0.39412667  0.61442220  0.71148655    -0.08600
C2271       C  0.37561799  0.62673196  0.73153041    -0.03100
C2272       C  0.36008252  0.63983528  0.70516649     0.03700
N2273       N  0.33990778  0.65145114  0.72216252     0.66200
H2274       H  0.35166763  0.65155286  0.64177201     0.15100
H2275       H  0.40627025  0.60391518  0.73047483     0.14800
N2276       N  0.41660932  0.60211118  0.64915810     0.73900
O2277       O  0.34064232  0.67344874  0.72835250    -0.39500
O2278       O  0.32022550  0.64159702  0.71818589    -0.39500
O2279       O  0.43718795  0.60996388  0.65256636    -0.40200
O2280       O  0.41369309  0.58032377  0.64268684    -0.40200
C2281       C  0.37204782  0.65654519  0.16338938    -0.12500
C2282       C  0.38160230  0.63715578  0.14111981     0.04500
C2283       C  0.38704703  0.61646123  0.16464419    -0.07800
C2284       C  0.38292046  0.61563205  0.20889736    -0.08600
C2285       C  0.37376902  0.63510667  0.23135999    -0.03100
C2286       C  0.36818120  0.65579416  0.20791936     0.03700
N2287       N  0.35943347  0.67654835  0.22852901     0.66200
H2288       H  0.36770949  0.67266960  0.14623562     0.15100
H2289       H  0.38721772  0.59943709  0.22587847     0.14800
N2290       N  0.39643939  0.59585310  0.14450497     0.73900
O2291       O  0.37378225  0.69207411  0.24083538    -0.39500
O2292       O  0.33830001  0.68233588  0.22255875    -0.39500
O2293       O  0.41818515  0.59202834  0.14715075    -0.40200
O2294       O  0.38293525  0.57882010  0.13638188    -0.40200
C2295       C  0.37046235  0.74281124  0.33605734    -0.12500
C2296       C  0.39142154  0.72992503  0.33829304     0.04500
C2297       C  0.41187407  0.74009585  0.32083943    -0.07800
C2298       C  0.41065600  0.76219746  0.30033367    -0.08600
C2299       C  0.38943830  0.77485361  0.29711409    -0.03100
C2300       C  0.36923492  0.76490187  0.31625034     0.03700
N2301       N  0.34703618  0.77656533  0.31574877     0.66200
H2302       H  0.35459842  0.73570031  0.34997094     0.15100
H2303       H  0.42652741  0.76934420  0.28656618     0.14800
N2304       N  0.43391535  0.72813577  0.32237351     0.73900
O2305       O  0.33248540  0.77135113  0.28653308    -0.39500
O2306       O  0.33968663  0.78579968  0.35016546    -0.39500
O2307       O  0.44102197  0.71755793  0.28910188    -0.40200
O2308       O  0.44857142  0.73385174  0.35109042    -0.40200
C2309       C  0.60010580  0.36202594  0.67506914    -0.12500
C2310       C  0.61934516  0.36718469  0.64865541     0.04500
C2311       C  0.64105730  0.37278759  0.66832790    -0.07800
C2312       C  0.64321142  0.37343632  0.71327477    -0.08600
C2313       C  0.62414294  0.36834090  0.73949735    -0.03100
C2314       C  0.60248902  0.36226385  0.72030256     0.03700
N2315       N  0.58339512  0.35474682  0.74659818     0.66200
H2316       H  0.58355053  0.35695680  0.66061935     0.15100
H2317       H  0.65982985  0.37829078  0.72775197     0.14800
N2318       N  0.66117201  0.37825251  0.64314684     0.73900
O2319       O  0.56825984  0.36960300  0.75855442    -0.39500
O2320       O  0.58460574  0.33499836  0.76539571    -0.39500
O2321       O  0.66684298  0.39960934  0.63850321    -0.40200
O2322       O  0.67651606  0.36246963  0.63775878    -0.40200
C2323       C  0.59997628  0.36346997  0.17450361    -0.12500
C2324       C  0.61998083  0.36366194  0.14838308     0.04500
C2325       C  0.64234645  0.36415385  0.16864174    -0.07800
C2326       C  0.64430529  0.36493109  0.21365000    -0.08600
C2327       C  0.62441851  0.36510069  0.23953103    -0.03100
C2328       C  0.60207354  0.36375106  0.21975580     0.03700
N2329       N  0.58147060  0.36170585  0.24551062     0.66200
H2330       H  0.58275570  0.36232064  0.15981254     0.15100
H2331       H  0.66152662  0.36607998  0.22837436     0.14800
N2332       N  0.66343012  0.36481453  0.14414190     0.73900
O2333       O  0.56870512  0.37961417  0.25144256    -0.39500
O2334       O  0.57869980  0.34367680  0.26888353    -0.39500
O2335       O  0.67257826  0.38460072  0.13636650    -0.40200
O2336       O  0.67619611  0.34660044  0.14325266    -0.40200
C2337       C  0.50750561  0.11477504  0.64528075    -0.12500
C2338       C  0.51781464  0.13717901  0.64749661     0.04500
C2339       C  0.50320668  0.15730548  0.64972562    -0.07800
C2340       C  0.47897295  0.15467353  0.64879021    -0.08600
C2341       C  0.46854186  0.13235172  0.64507257    -0.03100
C2342       C  0.48316127  0.11212951  0.64428142     0.03700
N2343       N  0.47389021  0.08879878  0.64142484     0.66200
H2344       H  0.51840948  0.09907471  0.64482177     0.15100
H2345       H  0.46824104  0.17049288  0.64953022     0.14800
N2346       N  0.51248037  0.18069901  0.65079658     0.73900
O2347       O  0.47267923  0.07898118  0.60497268    -0.39500
O2348       O  0.47383328  0.07608753  0.67487061    -0.39500
O2349       O  0.51203049  0.19284975  0.61666287    -0.40200
O2350       O  0.51407637  0.19114699  0.68660840    -0.40200
C2351       C  0.59667792  0.26566864  0.81591170    -0.12500
C2352       C  0.61707080  0.27256406  0.83788216     0.04500
C2353       C  0.63661961  0.25718204  0.83757976    -0.07800
C2354       C  0.63553385  0.23584114  0.81517514    -0.08600
C2355       C  0.61528144  0.22887533  0.79265466    -0.03100
C2356       C  0.59557370  0.24423982  0.79328597     0.03700
N2357       N  0.57432476  0.23879134  0.77097362     0.66200
H2358       H  0.58150840  0.27722931  0.81554908     0.15100
H2359       H  0.65088481  0.22455357  0.81598861     0.14800
N2360       N  0.65750485  0.26221372  0.86135733     0.73900
O2361       O  0.55750768  0.23021814  0.79199048    -0.39500
O2362       O  0.57010931  0.24888990  0.73546179    -0.39500
O2363       O  0.66026360  0.25274013  0.89789531    -0.40200
O2364       O  0.67535035  0.26897916  0.84103311    -0.40200
C2365       C  0.50576405  0.15457742  0.15731449    -0.12500
C2366       C  0.51915043  0.13489885  0.14468310     0.04500
C2367       C  0.50723287  0.11394693  0.13308417    -0.07800
C2368       C  0.48271677  0.11328078  0.13391618    -0.08600
C2369       C  0.46948124  0.13314332  0.14566195    -0.03100
C2370       C  0.48134776  0.15392666  0.15793656     0.03700
N2371       N  0.46903482  0.17455131  0.17177021     0.66200
H2372       H  0.51424928  0.17083402  0.16698640     0.15100
H2373       H  0.47397693  0.09731386  0.12340322     0.14800
N2374       N  0.51944517  0.09310673  0.12027516     0.73900
O2375       O  0.46702928  0.17828816  0.21169533    -0.39500
O2376       O  0.46691470  0.19168982  0.14599543    -0.39500
O2377       O  0.52154572  0.07638991  0.14696036    -0.40200
O2378       O  0.52128645  0.08871756  0.08054732    -0.40200
C2379       C  0.62172880  0.11520070  0.96668290    -0.12500
C2380       C  0.62563133  0.13731540  0.98567502     0.04500
C2381       C  0.63401627  0.15589939  0.95923969    -0.07800
C2382       C  0.63774602  0.15212017  0.91514119    -0.08600
C2383       C  0.63319679  0.13018788  0.89606843    -0.03100
C2384       C  0.62545398  0.11144631  0.92264626     0.03700
N2385       N  0.62164060  0.08828158  0.90585542     0.66200
H2386       H  0.61612287  0.10043136  0.98628240     0.15100
H2387       H  0.64324454  0.16686516  0.89536048     0.14800
N2388       N  0.63787038  0.17908784  0.97581949     0.73900
O2389       O  0.63776114  0.07309526  0.90936826    -0.39500
O2390       O  0.60091174  0.08141626  0.89945237    -0.39500
O2391       O  0.65863077  0.18589183  0.98209531    -0.40200
O2392       O  0.62188248  0.19435760  0.97152390    -0.40200
C2393       C  0.61909777  0.10965054  0.41928942    -0.12500
C2394       C  0.62559149  0.12993120  0.39611626     0.04500
C2395       C  0.62781651  0.15149554  0.41853985    -0.07800
C2396       C  0.62386258  0.15229203  0.46291203    -0.08600
C2397       C  0.61783150  0.13198650  0.48632350    -0.03100
C2398       C  0.61534666  0.11041565  0.46390802     0.03700
N2399       N  0.61014100  0.08889550  0.48586568     0.66200
H2400       H  0.61720347  0.09291602  0.40272632     0.15100
H2401       H  0.62571028  0.16910386  0.47923850     0.14800
N2402       N  0.63334404  0.17302751  0.39695304     0.73900
O2403       O  0.58950666  0.08102306  0.48449611    -0.39500
O2404       O  0.62670334  0.07506251  0.49569245    -0.39500
O2405       O  0.61699744  0.18739405  0.38859679    -0.40200
O2406       O  0.65404415  0.18064207  0.39930965    -0.40200
C2407       C  0.59681494  0.26544226  0.31771786    -0.12500
C2408       C  0.61646781  0.27137531  0.34272796     0.04500
C2409       C  0.63490912  0.25480051  0.34636031    -0.07800
C2410       C  0.63349699  0.23315463  0.32488090    -0.08600
C2411       C  0.61417947  0.22727920  0.29866048    -0.03100
C2412       C  0.59554645  0.24387317  0.29544857     0.03700
N2413       N  0.57552733  0.23978525  0.26873568     0.66200
H2414       H  0.58254884  0.27799279  0.31427823     0.15100
H2415       H  0.64796250  0.22090081  0.32883839     0.14800
N2416       N  0.65507784  0.25920734  0.37255598     0.73900
O2417       O  0.55661267  0.23360802  0.28623697    -0.39500
O2418       O  0.57478609  0.24916751  0.23182246    -0.39500
O2419       O  0.65580094  0.25069561  0.41016451    -0.40200
O2420       O  0.67404639  0.26450984  0.35431814    -0.40200
C2421       C  0.88226841  0.88699274  0.54379927    -0.12500
C2422       C  0.86378085  0.87554598  0.52214446     0.04500
C2423       C  0.84440654  0.86795728  0.54646688    -0.07800
C2424       C  0.84418556  0.87148412  0.59112969    -0.08600
C2425       C  0.86272824  0.88289319  0.61290661    -0.03100
C2426       C  0.88180627  0.89104800  0.58825378     0.03700
N2427       N  0.90075737  0.90386497  0.60713345     0.66200
H2428       H  0.89731211  0.89324728  0.52600542     0.15100
H2429       H  0.82905764  0.86530299  0.60874074     0.14800
N2430       N  0.82417072  0.85787027  0.52653760     0.73900
O2431       O  0.91974241  0.89320261  0.61502702    -0.39500
O2432       O  0.90092142  0.92605717  0.60353153    -0.39500
O2433       O  0.82104937  0.83588133  0.52929015    -0.40200
O2434       O  0.80681196  0.87105061  0.51856267    -0.40200
C2435       C  0.89211823  0.86973149  0.09261639    -0.12500
C2436       C  0.86979212  0.87041990  0.11114919     0.04500
C2437       C  0.84994968  0.86707943  0.08437111    -0.07800
C2438       C  0.85270413  0.86361963  0.04012994    -0.08600
C2439       C  0.87491929  0.86349653  0.02130629    -0.03100
C2440       C  0.89487333  0.86616732  0.04815474     0.03700
N2441       N  0.91804426  0.86429348  0.03132604     0.66200
H2442       H  0.90755038  0.87140296  0.11288987     0.15100
H2443       H  0.83715985  0.86216940  0.02007162     0.14800
N2444       N  0.82670586  0.86845912  0.10097077     0.73900
O2445       O  0.93010337  0.88276572  0.02713482    -0.39500
O2446       O  0.92834696  0.84456326  0.03298982    -0.39500
O2447       O  0.81565961  0.88771772  0.09771857    -0.40200
O2448       O  0.81535136  0.84961991  0.10627460    -0.40200
C2449       C  0.64755245  0.99662502  0.58912570    -0.12500
C2450       C  0.62921010  0.98226212  0.60379927     0.04500
C2451       C  0.60910482  0.99346498  0.62127901    -0.07800
C2452       C  0.60855735  0.01809321  0.62597315    -0.08600
C2453       C  0.62757056  0.03205562  0.61354663    -0.03100
C2454       C  0.64688757  0.02110729  0.59363692     0.03700
N2455       N  0.66596832  0.03450275  0.57708371     0.66200
H2456       H  0.66295888  0.98889256  0.57448698     0.15100
H2457       H  0.59344240  0.02624360  0.64094025     0.14800
N2458       N  0.58903442  0.98047260  0.63461175     0.73900
O2459       O  0.68492803  0.03489995  0.59813075    -0.39500
O2460       O  0.66633519  0.03911263  0.53726985    -0.39500
O2461       O  0.58554505  0.97781147  0.67446427    -0.40200
O2462       O  0.57185114  0.97894850  0.60900070    -0.40200
C2463       C  0.52369587  0.84545862  0.63729274    -0.12500
C2464       C  0.53432718  0.86779220  0.63670097     0.04500
C2465       C  0.51966952  0.88804466  0.63611589    -0.07800
C2466       C  0.49523391  0.88542566  0.63549053    -0.08600
C2467       C  0.48476989  0.86301335  0.63566133    -0.03100
C2468       C  0.49941311  0.84287317  0.63636571     0.03700
N2469       N  0.49013803  0.81951507  0.63432097     0.66200
H2470       H  0.53431993  0.82956534  0.63736141     0.15100
H2471       H  0.48437926  0.90116082  0.63580459     0.14800
N2472       N  0.52898665  0.91141290  0.63549379     0.73900
O2473       O  0.48965809  0.80912432  0.59834360    -0.39500
O2474       O  0.48959042  0.80731126  0.66835852    -0.39500
O2475       O  0.53005695  0.92226070  0.59999760    -0.40200
O2476       O  0.52917239  0.92316535  0.67004860    -0.40200
C2477       C  0.73328419  0.86659938  0.43216002    -0.12500
C2478       C  0.72774649  0.88652880  0.45734907     0.04500
C2479       C  0.74282774  0.90631921  0.45482746    -0.07800
C2480       C  0.76307327  0.90528848  0.42916316    -0.08600
C2481       C  0.76893105  0.88483768  0.40593361    -0.03100
C2482       C  0.75341438  0.86556087  0.40692588     0.03700
N2483       N  0.75757541  0.84469577  0.38223757     0.66200
H2484       H  0.72197763  0.85129672  0.43193851     0.15100
H2485       H  0.77479611  0.92029673  0.42885731     0.14800
N2486       N  0.73853386  0.92733042  0.47893368     0.73900
O2487       O  0.76514763  0.82650660  0.40130540    -0.39500
O2488       O  0.74725364  0.84237551  0.34641054    -0.39500
O2489       O  0.74978673  0.93059127  0.51354327    -0.40200
O2490       O  0.72948831  0.94487349  0.45996897    -0.40200
C2491       C  0.65259825  0.99760232  0.09211871    -0.12500
C2492       C  0.63237941  0.98411862  0.09907623     0.04500
C2493       C  0.61122498  0.99607556  0.10866877    -0.07800
C2494       C  0.61111627  0.02071425  0.11336483    -0.08600
C2495       C  0.63170789  0.03391471  0.10880948    -0.03100
C2496       C  0.65248222  0.02208586  0.09670270     0.03700
N2497       N  0.67377755  0.03449465  0.08887549     0.66200
H2498       H  0.66901012  0.98907980  0.08395506     0.15100
H2499       H  0.59491235  0.02944003  0.12217243     0.14800
N2500       N  0.58959309  0.98380248  0.11322318     0.73900
O2501       O  0.68966033  0.03396957  0.11731462    -0.39500
O2502       O  0.67926095  0.03917168  0.05044144    -0.39500
O2503       O  0.58079166  0.98203810  0.15031368    -0.40200
O2504       O  0.57636358  0.98191938  0.08068201    -0.40200
C2505       C  0.49848625  0.88485931  0.13886592    -0.12500
C2506       C  0.48871164  0.86230218  0.14364029     0.04500
C2507       C  0.50380821  0.84273150  0.14894032    -0.07800
C2508       C  0.52797022  0.84610778  0.15023358    -0.08600
C2509       C  0.53786547  0.86857138  0.14455052    -0.03100
C2510       C  0.52274157  0.88817326  0.13890175     0.03700
N2511       N  0.53145170  0.91135771  0.13077276     0.66200
H2512       H  0.48723144  0.90018129  0.13513884     0.15100
H2513       H  0.53910688  0.83068308  0.15379377     0.14800
N2514       N  0.49517312  0.81909465  0.14989363     0.73900
O2515       O  0.53320288  0.91830929  0.09224957    -0.39500
O2516       O  0.53075196  0.92648117  0.16059189    -0.39500
O2517       O  0.49623797  0.80688934  0.11591977    -0.40200
O2518       O  0.49345005  0.80869580  0.18572550    -0.40200
C2519       C  0.65529959  0.86844271  0.79436581    -0.12500
C2520       C  0.63511811  0.87577572  0.77164791     0.04500
C2521       C  0.61423419  0.87934215  0.79494304    -0.07800
C2522       C  0.61396210  0.87543340  0.83953301    -0.08600
C2523       C  0.63419348  0.86829107  0.86227440    -0.03100
C2524       C  0.65509494  0.86477536  0.83900190     0.03700
N2525       N  0.67660782  0.85865445  0.86002276     0.66200
H2526       H  0.67164255  0.86575234  0.77740783     0.15100
H2527       H  0.59769146  0.87833532  0.85660993     0.14800
N2528       N  0.59299231  0.88655600  0.77418301     0.73900
O2529       O  0.68341970  0.83744771  0.85917545    -0.39500
O2530       O  0.69140045  0.87467574  0.86737616    -0.39500
O2531       O  0.57725656  0.87139273  0.76745162    -0.40200
O2532       O  0.58743053  0.90813143  0.77468236    -0.40200
C2533       C  0.61528780  0.87379401  0.33757076    -0.12500
C2534       C  0.63595859  0.87042729  0.36155422     0.04500
C2535       C  0.65766225  0.87167517  0.34021551    -0.07800
C2536       C  0.65827743  0.87640390  0.29594817    -0.08600
C2537       C  0.63760887  0.87962118  0.27177688    -0.03100
C2538       C  0.61585704  0.87802726  0.29309341     0.03700
N2539       N  0.59416119  0.87902387  0.26999524     0.66200
H2540       H  0.59845421  0.87286913  0.35348534     0.15100
H2541       H  0.67517407  0.87743276  0.28029327     0.14800
N2542       N  0.67932268  0.86905107  0.36296386     0.73900
O2543       O  0.58478460  0.85994881  0.25810870    -0.39500
O2544       O  0.58162742  0.89733630  0.27287447    -0.39500
O2545       O  0.69016058  0.84965928  0.36039186    -0.40200
O2546       O  0.69046966  0.88733370  0.37373036    -0.40200
C2547       C  0.76690010  0.90306501  0.94045792    -0.12500
C2548       C  0.77285344  0.88302679  0.91618112     0.04500
C2549       C  0.75733348  0.86366662  0.91603827    -0.07800
C2550       C  0.73685161  0.86447400  0.94042628    -0.08600
C2551       C  0.73099490  0.88424726  0.96560628    -0.03100
C2552       C  0.74634907  0.90386234  0.96512743     0.03700
N2553       N  0.74191552  0.92451576  0.99020702     0.66200
H2554       H  0.77865680  0.91804081  0.94139483     0.15100
H2555       H  0.72528223  0.84937646  0.93892031     0.14800
N2556       N  0.76146908  0.84326145  0.89011640     0.73900
O2557       O  0.75173562  0.92652464  0.02656894    -0.39500
O2558       O  0.73424209  0.94279866  0.97155359    -0.39500
O2559       O  0.76746643  0.82426882  0.90844226    -0.40200
O2560       O  0.75226939  0.84231905  0.85306475    -0.40200
C2561       C  0.89159503  0.73578226  0.81010111    -0.12500
C2562       C  0.87035790  0.72618689  0.79524568     0.04500
C2563       C  0.84955330  0.73929610  0.80274536    -0.07800
C2564       C  0.85061424  0.76127276  0.82392048    -0.08600
C2565       C  0.87199178  0.77074238  0.83846120    -0.03100
C2566       C  0.89260744  0.75734562  0.83179085     0.03700
N2567       N  0.91492506  0.76496001  0.84736304     0.66200
H2568       H  0.90787229  0.72618047  0.80602440     0.15100
H2569       H  0.83456709  0.77131044  0.82772259     0.14800
N2570       N  0.82715367  0.73088140  0.78920381     0.73900
O2571       O  0.92165257  0.75807287  0.88412040    -0.39500
O2572       O  0.93008193  0.77145913  0.82042692    -0.39500
O2573       O  0.81345577  0.72261058  0.81716937    -0.40200
O2574       O  0.81873986  0.73824023  0.75393768    -0.40200
C2575       C  0.89120403  0.73635218  0.32363477    -0.12500
C2576       C  0.87070372  0.72803664  0.30348502     0.04500
C2577       C  0.84988643  0.74146424  0.30866896    -0.07800
C2578       C  0.85033793  0.76273596  0.33210000    -0.08600
C2579       C  0.87107175  0.77119460  0.35125435    -0.03100
C2580       C  0.89150896  0.75718410  0.34777348     0.03700
N2581       N  0.91273528  0.76327754  0.36959320     0.66200
H2582       H  0.90731286  0.72625856  0.32191322     0.15100
H2583       H  0.83444698  0.77321536  0.33355892     0.14800
N2584       N  0.82816249  0.73428864  0.28986655     0.73900
O2585       O  0.91663898  0.75443833  0.40631908    -0.39500
O2586       O  0.92983525  0.77050493  0.34768718    -0.39500
O2587       O  0.81277327  0.72532866  0.31385367    -0.40200
O2588       O  0.82195039  0.74323499  0.25429825    -0.40200
C2589       C  0.89072061  0.61763554  0.53769498    -0.12500
C2590       C  0.86837210  0.61854940  0.51877763     0.04500
C2591       C  0.84888959  0.62312196  0.54570287    -0.07800
C2592       C  0.85222438  0.62761233  0.58974958    -0.08600
C2593       C  0.87459076  0.62707932  0.60861183    -0.03100
C2594       C  0.89399979  0.62163244  0.58199240     0.03700
N2595       N  0.91730196  0.62057651  0.59888938     0.66200
H2596       H  0.90593762  0.61436972  0.51779469     0.15100
H2597       H  0.83696069  0.63056183  0.60970350     0.14800
N2598       N  0.82541257  0.62194010  0.52966989     0.73900
O2599       O  0.93016688  0.63854945  0.59566662    -0.39500
O2600       O  0.92678198  0.60063865  0.60444928    -0.39500
O2601       O  0.81354277  0.60366699  0.53731511    -0.40200
O2602       O  0.81483513  0.64087005  0.52033104    -0.40200
C2603       C  0.89081486  0.62591077  0.08519479    -0.12500
C2604       C  0.87075855  0.63219656  0.10864006     0.04500
C2605       C  0.84930831  0.63486017  0.08622852    -0.07800
C2606       C  0.84826832  0.63053279  0.04178052    -0.08600
C2607       C  0.86828029  0.62383857  0.01843607    -0.03100
C2608       C  0.88987391  0.62200502  0.04066427     0.03700
N2609       N  0.91129761  0.61748681  0.01854903     0.66200
H2610       H  0.90754235  0.62410802  0.10160127     0.15100
H2611       H  0.83151673  0.63232933  0.02546880     0.14800
N2612       N  0.82822321  0.64126646  0.10791097     0.73900
O2613       O  0.92306562  0.63478057  0.00507890    -0.39500
O2614       O  0.92140134  0.59785567  0.02396374    -0.39500
O2615       O  0.82149816  0.66249030  0.10637707    -0.40200
O2616       O  0.81351490  0.62540995  0.11663654    -0.40200
C2617       C  0.65141623  0.73695805  0.57725341    -0.12500
C2618       C  0.63050846  0.72953937  0.59668247     0.04500
C2619       C  0.61062974  0.74434423  0.59298176    -0.07800
C2620       C  0.61166809  0.76509262  0.56851257    -0.08600
C2621       C  0.63239083  0.77242511  0.54817325    -0.03100
C2622       C  0.65260293  0.75806500  0.55342671     0.03700
N2623       N  0.67442668  0.76410162  0.53416536     0.66200
H2624       H  0.66682860  0.72575998  0.57880962     0.15100
H2625       H  0.59599973  0.77585601  0.56653022     0.14800
N2626       N  0.58932064  0.73916286  0.61494290     0.73900
O2627       O  0.69023151  0.77304913  0.55751636    -0.39500
O2628       O  0.68013612  0.75418952  0.49932566    -0.39500
O2629       O  0.58571741  0.74875210  0.65103509    -0.40200
O2630       O  0.57197627  0.73205687  0.59326148    -0.40200
C2631       C  0.61066151  0.48180860  0.50788955    -0.12500
C2632       C  0.63000694  0.46795545  0.51986728     0.04500
C2633       C  0.64984910  0.47920303  0.53771004    -0.07800
C2634       C  0.65014071  0.50370927  0.54229794    -0.08600
C2635       C  0.63108325  0.51784484  0.52928112    -0.03100
C2636       C  0.61099785  0.50646033  0.51211540     0.03700
N2637       N  0.59076438  0.51932703  0.49838088     0.66200
H2638       H  0.59538622  0.47353276  0.49361590     0.15100
H2639       H  0.66574488  0.51166260  0.55592362     0.14800
N2640       N  0.66983432  0.46612826  0.55220114     0.73900
O2641       O  0.58784016  0.52293002  0.45854605    -0.39500
O2642       O  0.57316352  0.51989393  0.52279564    -0.39500
O2643       O  0.68830689  0.46681797  0.53009095    -0.40200
O2644       O  0.67130699  0.46067640  0.59159258    -0.40200
C2645       C  0.52336865  0.61329534  0.49865655    -0.12500
C2646       C  0.53614566  0.63364133  0.48830964     0.04500
C2647       C  0.52383500  0.65408825  0.47530743    -0.07800
C2648       C  0.49941617  0.65379401  0.47294130    -0.08600
C2649       C  0.48644966  0.63354940  0.48368201    -0.03100
C2650       C  0.49884278  0.61307610  0.49693212     0.03700
N2651       N  0.48713799  0.59183581  0.50878234     0.66200
H2652       H  0.53243582  0.59756280  0.50978180     0.15100
H2653       H  0.49058609  0.66982375  0.46267962     0.14800
N2654       N  0.53568777  0.67532095  0.46373950     0.73900
O2655       O  0.48519245  0.57561949  0.48113777    -0.39500
O2656       O  0.48571658  0.58663038  0.54826584    -0.39500
O2657       O  0.53707708  0.68074114  0.42435638    -0.40200
O2658       O  0.53789197  0.69136075  0.49165891    -0.40200
C2659       C  0.73768301  0.59520942  0.68760936    -0.12500
C2660       C  0.73006883  0.61649363  0.66880494     0.04500
C2661       C  0.74510701  0.63619792  0.67066627    -0.07800
C2662       C  0.76660368  0.63454531  0.69224393    -0.08600
C2663       C  0.77416970  0.61345491  0.71204195    -0.03100
C2664       C  0.75942247  0.59342883  0.70882074     0.03700
N2665       N  0.76605568  0.57104149  0.72632817     0.66200
H2666       H  0.72654082  0.57977026  0.68633363     0.15100
H2667       H  0.77754738  0.65012234  0.69286500     0.14800
N2668       N  0.73955648  0.65780466  0.64908435     0.73900
O2669       O  0.75719632  0.56448305  0.76153258    -0.39500
O2670       O  0.77467351  0.55570296  0.70149473    -0.39500
O2671       O  0.73335809  0.67537401  0.67128725    -0.40200
O2672       O  0.74773874  0.66125437  0.61189148    -0.40200
C2673       C  0.65460860  0.76333208  0.06796290    -0.12500
C2674       C  0.63361424  0.77159592  0.04926134     0.04500
C2675       C  0.61325303  0.75775368  0.05435405    -0.07800
C2676       C  0.61415614  0.73672762  0.07787274    -0.08600
C2677       C  0.63513552  0.72804728  0.09577955    -0.03100
C2678       C  0.65560966  0.74186432  0.09083870     0.03700
N2679       N  0.67755909  0.73472503  0.10899826     0.66200
H2680       H  0.67034325  0.77390777  0.06590603     0.15100
H2681       H  0.59815277  0.72667557  0.08049944     0.14800
N2682       N  0.59144235  0.76416057  0.03479234     0.73900
O2683       O  0.69194433  0.72375624  0.08558101    -0.39500
O2684       O  0.68495734  0.74501978  0.14245763    -0.39500
O2685       O  0.58596184  0.75472575  0.99931610    -0.40200
O2686       O  0.57532592  0.77198368  0.05852952    -0.40200
C2687       C  0.60807822  0.48125184  0.00764340    -0.12500
C2688       C  0.62716290  0.46726015  0.02072959     0.04500
C2689       C  0.64679641  0.47851578  0.03930604    -0.07800
C2690       C  0.64733334  0.50305442  0.04300182    -0.08600
C2691       C  0.62867129  0.51738250  0.02869886    -0.03100
C2692       C  0.60859028  0.50601190  0.01130444     0.03700
N2693       N  0.58850381  0.51895065  0.99703370     0.66200
H2694       H  0.59289092  0.47299179  0.99303428     0.15100
H2695       H  0.66287368  0.51084611  0.05716463     0.14800
N2696       N  0.66634280  0.46539736  0.05559813     0.73900
O2697       O  0.58566065  0.52222670  0.95708550    -0.39500
O2698       O  0.57086432  0.51987879  0.02132650    -0.39500
O2699       O  0.68502098  0.46501957  0.03404291    -0.40200
O2700       O  0.66733787  0.46103437  0.09548342    -0.40200
C2701       C  0.49527325  0.61862642  0.00051816    -0.12500
C2702       C  0.48525975  0.64058916  0.99043204     0.04500
C2703       C  0.50024464  0.66023508  0.98472532    -0.07800
C2704       C  0.52447873  0.65741760  0.98893528    -0.08600
C2705       C  0.53444804  0.63544204  0.99901502    -0.03100
C2706       C  0.51949629  0.61586080  0.00493030     0.03700
N2707       N  0.52826303  0.59326818  0.01772554     0.66200
H2708       H  0.48425224  0.60326994  0.00474305     0.15100
H2709       H  0.53558345  0.67274546  0.98496602     0.14800
N2710       N  0.49134565  0.68343131  0.97656467     0.73900
O2711       O  0.52806806  0.58791624  0.05723400    -0.39500
O2712       O  0.52888106  0.57692373  0.99013648    -0.39500
O2713       O  0.48956183  0.69759600  0.00777343    -0.40200
O2714       O  0.49250969  0.69165090  0.93880022    -0.40200
C2715       C  0.61157879  0.62246792  0.84838858    -0.12500
C2716       C  0.63405799  0.62170624  0.86676589     0.04500
C2717       C  0.65363956  0.62508544  0.83965854    -0.07800
C2718       C  0.65038719  0.62990926  0.79581421    -0.08600
C2719       C  0.62797574  0.63060435  0.77731816    -0.03100
C2720       C  0.60835962  0.62655731  0.80410702     0.03700
N2721       N  0.58501469  0.62679185  0.78731555     0.66200
H2722       H  0.59632003  0.62026037  0.86862250     0.15100
H2723       H  0.66570574  0.63183243  0.77561157     0.14800
N2724       N  0.67704476  0.62191321  0.85514986     0.73900
O2725       O  0.57512899  0.60735869  0.77951489    -0.39500
O2726       O  0.57249528  0.64491160  0.79301612    -0.39500
O2727       O  0.68690842  0.60221226  0.84926674    -0.40200
O2728       O  0.68959681  0.63987354  0.86151263    -0.40200
C2729       C  0.61689760  0.62546254  0.29995784    -0.12500
C2730       C  0.63751470  0.63063861  0.27739309     0.04500
C2731       C  0.65873338  0.63251735  0.30073201    -0.07800
C2732       C  0.65884511  0.62897958  0.34545460    -0.08600
C2733       C  0.63818355  0.62365130  0.36796097    -0.03100
C2734       C  0.61696510  0.62203806  0.34454389     0.03700
N2735       N  0.59506321  0.61803531  0.36530480     0.66200
H2736       H  0.60035551  0.62416223  0.28279981     0.15100
H2737       H  0.67536906  0.63028086  0.36265069     0.14800
N2738       N  0.68047629  0.63710796  0.27979606     0.73900
O2739       O  0.58307003  0.63562702  0.37700807    -0.39500
O2740       O  0.58494831  0.59849503  0.35973926    -0.39500
O2741       O  0.68925740  0.65745413  0.28282702    -0.40200
O2742       O  0.69363503  0.61994351  0.27040238    -0.40200
C2743       C  0.76604895  0.59422273  0.19934329    -0.12500
C2744       C  0.77623786  0.61639639  0.20758333     0.04500
C2745       C  0.76456092  0.63675346  0.19169096    -0.07800
C2746       C  0.74326318  0.63460780  0.17001686    -0.08600
C2747       C  0.73256403  0.61264503  0.16316838    -0.03100
C2748       C  0.74457490  0.59212840  0.17730260     0.03700
N2749       N  0.73540049  0.56903383  0.17021792     0.66200
H2750       H  0.77473990  0.57821898  0.21010543     0.15100
H2751       H  0.73493610  0.65071588  0.15878839     0.14800
N2752       N  0.77360995  0.66002416  0.19724816     0.73900
O2753       O  0.74284695  0.55726947  0.13855812    -0.39500
O2754       O  0.72620271  0.55822576  0.20139887    -0.39500
O2755       O  0.78188314  0.67049311  0.16481837    -0.40200
O2756       O  0.76635601  0.67221910  0.22851356    -0.40200
C2757       C  0.26500427  0.84647963  0.68324746    -0.12500
C2758       C  0.27354032  0.86373595  0.71186128     0.04500
C2759       C  0.25825875  0.88163814  0.72558985    -0.07800
C2760       C  0.23569635  0.88307127  0.70877434    -0.08600
C2761       C  0.22695494  0.86652829  0.67898872    -0.03100
C2762       C  0.24181229  0.84751364  0.66710214     0.03700
N2763       N  0.23437285  0.82990201  0.63715066     0.66200
H2764       H  0.27676745  0.83292152  0.67142526     0.15100
H2765       H  0.22500011  0.89765037  0.71953262     0.14800
N2766       N  0.26543470  0.89891707  0.75642815     0.73900
O2767       O  0.24117458  0.83123628  0.59857005    -0.39500
O2768       O  0.22757565  0.81024174  0.65146561    -0.39500
O2769       O  0.27026418  0.91944852  0.74350939    -0.40200
O2770       O  0.25989631  0.89595185  0.79539553    -0.40200
C2771       C  0.00543170  0.88651256  0.73601090    -0.12500
C2772       C  0.01591908  0.86409043  0.73520656     0.04500
C2773       C  0.00144805  0.84396713  0.73424020    -0.07800
C2774       C  0.97715684  0.84658568  0.73472599    -0.08600
C2775       C  0.96649222  0.86896138  0.73685983    -0.03100
C2776       C  0.98104058  0.88918750  0.73678923     0.03700
N2777       N  0.97168004  0.91257545  0.73879350     0.66200
H2778       H  0.01624982  0.90219924  0.73557080     0.15100
H2779       H  0.96660885  0.83071640  0.73492419     0.14800
N2780       N  0.01097235  0.82062089  0.73519034     0.73900
O2781       O  0.97080115  0.92283648  0.77485675    -0.39500
O2782       O  0.97117184  0.92487813  0.70484612    -0.39500
O2783       O  0.01219925  0.80993191  0.77086287    -0.40200
O2784       O  0.01124082  0.80873402  0.70080434    -0.40200
C2785       C  0.14552214  0.97719811  0.79143863    -0.12500
C2786       C  0.12495337  0.96927575  0.77142720     0.04500
C2787       C  0.10682209  0.98559277  0.76276339    -0.07800
C2788       C  0.11011775  0.00951696  0.77220177    -0.08600
C2789       C  0.13120021  0.01766468  0.79041227    -0.03100
C2790       C  0.14880973  0.00097655  0.80118206     0.03700
N2791       N  0.17056343  0.00771359  0.82047997     0.66200
H2792       H  0.15953181  0.96482490  0.79874571     0.15100
H2793       H  0.09614786  0.02181866  0.76442530     0.14800
N2794       N  0.08563984  0.97863757  0.74174534     0.73900
O2795       O  0.17331986  0.00493357  0.86057365    -0.39500
O2796       O  0.18839692  0.00968154  0.79691250    -0.39500
O2797       O  0.06733639  0.97635430  0.76395497    -0.40200
O2798       O  0.08370008  0.98172447  0.70157716    -0.40200
C2799       C  0.26314930  0.85596541  0.22648057    -0.12500
C2800       C  0.27744987  0.85788256  0.19045429     0.04500
C2801       C  0.26728113  0.85687618  0.14875803    -0.07800
C2802       C  0.24293738  0.85632024  0.14401866    -0.08600
C2803       C  0.22856482  0.85712097  0.18018847    -0.03100
C2804       C  0.23885344  0.85576178  0.22178805     0.03700
N2805       N  0.22503312  0.85440985  0.25984487     0.66200
H2806       H  0.27077533  0.85610915  0.25859085     0.15100
H2807       H  0.23529239  0.85685314  0.11194616     0.14800
N2808       N  0.28126844  0.85633410  0.11080558     0.73900
O2809       O  0.22327815  0.87255604  0.28316526    -0.39500
O2810       O  0.22233301  0.83441637  0.27703006    -0.39500
O2811       O  0.28300918  0.83706430  0.09068168    -0.40200
O2812       O  0.28472864  0.87535522  0.09067376    -0.40200
C2813       C  0.00717516  0.88551130  0.24961337    -0.12500
C2814       C  0.01777495  0.86355696  0.24147957     0.04500
C2815       C  0.00336036  0.84342275  0.23736063    -0.07800
C2816       C  0.97914189  0.84557275  0.24141304    -0.08600
C2817       C  0.96852295  0.86742684  0.24950467    -0.03100
C2818       C  0.98282824  0.88766048  0.25360207     0.03700
N2819       N  0.97325347  0.91032876  0.26361955     0.66200
H2820       H  0.01780651  0.90125224  0.25246068     0.15100
H2821       H  0.96854048  0.82979950  0.23861100     0.14800
N2822       N  0.01287261  0.82041873  0.23026922     0.73900
O2823       O  0.97288977  0.91693134  0.30246963    -0.39500
O2824       O  0.97198221  0.92570123  0.23421532    -0.39500
O2825       O  0.01621138  0.80704658  0.26229966    -0.40200
O2826       O  0.01103442  0.81138357  0.19323038    -0.40200
C2827       C  0.15162562  0.97972045  0.27248373    -0.12500
C2828       C  0.12930845  0.96915720  0.27068815     0.04500
C2829       C  0.10945423  0.98361946  0.27792573    -0.07800
C2830       C  0.11229543  0.00786430  0.28544956    -0.08600
C2831       C  0.13457404  0.01823884  0.28631250    -0.03100
C2832       C  0.15440601  0.00385235  0.27994960     0.03700
N2833       N  0.17744985  0.01355435  0.27818609     0.66200
H2834       H  0.16729323  0.96930784  0.26709601     0.15100
H2835       H  0.09688221  0.01868364  0.29076189     0.14800
N2836       N  0.08623819  0.97439133  0.27679113     0.73900
O2837       O  0.19113925  0.01046005  0.30978301    -0.39500
O2838       O  0.18593420  0.01871899  0.24189655    -0.39500
O2839       O  0.07609953  0.97014836  0.31199799    -0.40200
O2840       O  0.07399202  0.97740922  0.24322587    -0.40200
C2841       C  0.13515509  0.85494593  0.96550524    -0.12500
C2842       C  0.12748947  0.87577051  0.98528303     0.04500
C2843       C  0.11700477  0.89348320  0.95897843    -0.07800
C2844       C  0.11394369  0.88965432  0.91460171    -0.08600
C2845       C  0.12116074  0.86855001  0.89497991    -0.03100
C2846       C  0.13212180  0.85112673  0.92124971     0.03700
N2847       N  0.13977739  0.82900860  0.90424177     0.66200
H2848       H  0.14292586  0.84095971  0.98476584     0.15100
H2849       H  0.10616484  0.90360768  0.89528125     0.14800
N2850       N  0.10979297  0.91574911  0.97614444     0.73900
O2851       O  0.12652689  0.81134195  0.90779454    -0.39500
O2852       O  0.16141559  0.82567417  0.89869366    -0.39500
O2853       O  0.12225316  0.93366610  0.96890937    -0.40200
O2854       O  0.08855388  0.91869442  0.98585772    -0.40200
C2855       C  0.10720059  0.88291466  0.41540478    -0.12500
C2856       C  0.12005391  0.86497505  0.39524861     0.04500
C2857       C  0.13517834  0.85076547  0.42106163    -0.07800
C2858       C  0.13703839  0.85487481  0.46536383    -0.08600
C2859       C  0.12432641  0.87294656  0.48535226    -0.03100
C2860       C  0.10924869  0.88716973  0.45956363     0.03700
N2861       N  0.09626693  0.90653790  0.47691004     0.66200
H2862       H  0.09568471  0.89426868  0.39670195     0.15100
H2863       H  0.14845465  0.84351209  0.48426374     0.14800
N2864       N  0.14917254  0.83224323  0.40335477     0.73900
O2865       O  0.10449859  0.92707991  0.47321181    -0.39500
O2866       O  0.07456029  0.90413237  0.48287665    -0.39500
O2867       O  0.17056792  0.83613372  0.39639092    -0.40200
O2868       O  0.14242529  0.81118641  0.40765571    -0.40200
C2869       C  0.23436984  0.64932239  0.90736202    -0.12500
C2870       C  0.22857394  0.64864994  0.95143538     0.04500
C2871       C  0.24656676  0.64962325  0.98242613    -0.07800
C2872       C  0.26986386  0.64864301  0.96890727    -0.08600
C2873       C  0.27556233  0.64674703  0.92497268    -0.03100
C2874       C  0.25766977  0.64830532  0.89384225     0.03700
N2875       N  0.26248511  0.64631770  0.84884876     0.66200
H2876       H  0.22059901  0.64875121  0.88315896     0.15100
H2877       H  0.28361302  0.64781006  0.99312068     0.14800
N2878       N  0.24166938  0.64925266  0.02751857     0.73900
O2879       O  0.26031602  0.62646153  0.83087454    -0.39500
O2880       O  0.26192396  0.66470766  0.82587265    -0.39500
O2881       O  0.24524018  0.63046815  0.04849199    -0.40200
O2882       O  0.24054954  0.66858171  0.04759491    -0.40200
C2883       C  0.00300216  0.65272156  0.91383962    -0.12500
C2884       C  0.01622181  0.63190889  0.90950425     0.04500
C2885       C  0.00414487  0.61029759  0.90463915    -0.07800
C2886       C  0.97962946  0.61021216  0.90122169    -0.08600
C2887       C  0.96656460  0.63125812  0.90306660    -0.03100
C2888       C  0.97856517  0.65259784  0.91112620     0.03700
N2889       N  0.96633927  0.67432903  0.91772690     0.66200
H2890       H  0.01169147  0.66946007  0.91915110     0.15100
H2891       H  0.97087304  0.59352935  0.89573903     0.14800
N2892       N  0.01618726  0.58817018  0.90440504     0.73900
O2893       O  0.96248323  0.68098240  0.95587039    -0.39500
O2894       O  0.96597200  0.68945019  0.88782825    -0.39500
O2895       O  0.01728315  0.57640999  0.93895464    -0.40200
O2896       O  0.01870822  0.57755789  0.86897888    -0.40200
C2897       C  0.13305942  0.73558623  0.07403034    -0.12500
C2898       C  0.11379474  0.72895056  0.04839150     0.04500
C2899       C  0.09535248  0.74553145  0.04254377    -0.07800
C2900       C  0.09624396  0.76750882  0.06340063    -0.08600
C2901       C  0.11571686  0.77405792  0.08830174    -0.03100
C2902       C  0.13443178  0.75788943  0.09300007     0.03700
N2903       N  0.15507939  0.76363644  0.11695119     0.66200
H2904       H  0.14756707  0.72350570  0.07913749     0.15100
H2905       H  0.08203119  0.77997891  0.05848516     0.14800
N2906       N  0.07644959  0.74131352  0.01323541     0.73900
O2907       O  0.15656967  0.75735828  0.15592189    -0.39500
O2908       O  0.17361858  0.76813022  0.09660136    -0.39500
O2909       O  0.05613097  0.73830993  0.02800719    -0.40200
O2910       O  0.07872359  0.74749052  0.97436984    -0.40200
C2911       C  0.23372667  0.64503565  0.40945629    -0.12500
C2912       C  0.22827177  0.64539720  0.45364887     0.04500
C2913       C  0.24616860  0.64978032  0.48385708    -0.07800
C2914       C  0.26936769  0.65084154  0.46974082    -0.08600
C2915       C  0.27497292  0.64796169  0.42595112    -0.03100
C2916       C  0.25685586  0.64638542  0.39533444     0.03700
N2917       N  0.26156622  0.64402145  0.35037304     0.66200
H2918       H  0.22000148  0.64228125  0.38573981     0.15100
H2919       H  0.28327159  0.65228299  0.49353041     0.14800
N2920       N  0.24153705  0.65111168  0.52898775     0.73900
O2921       O  0.26190432  0.62365290  0.33395278    -0.39500
O2922       O  0.25833135  0.66163958  0.32609967    -0.39500
O2923       O  0.24639536  0.63356495  0.55253184    -0.40200
O2924       O  0.23953031  0.67118672  0.54619544    -0.40200
C2925       C  0.00871506  0.61490948  0.39142059    -0.12500
C2926       C  0.01830460  0.63728916  0.39953696     0.04500
C2927       C  0.00283725  0.65648436  0.40638909    -0.07800
C2928       C  0.97864995  0.65296244  0.40458172    -0.08600
C2929       C  0.96905228  0.63075307  0.39520132    -0.03100
C2930       C  0.98445901  0.61145780  0.38913559     0.03700
N2931       N  0.97608106  0.58846509  0.37844591     0.66200
H2932       H  0.02011130  0.59979611  0.38684682     0.15100
H2933       H  0.96724987  0.66810521  0.40900126     0.14800
N2934       N  0.01112425  0.67999770  0.41281757     0.73900
O2935       O  0.97507385  0.58252380  0.33927132    -0.39500
O2936       O  0.97671470  0.57255420  0.40694314    -0.39500
O2937       O  0.01222020  0.69363993  0.38069731    -0.40200
O2938       O  0.01007867  0.68884260  0.45009188    -0.40200
C2939       C  0.11718806  0.61438541  0.72332415    -0.12500
C2940       C  0.11802819  0.63699113  0.74162176     0.04500
C2941       C  0.12389291  0.65635826  0.71468585    -0.07800
C2942       C  0.12865221  0.65269749  0.67092739    -0.08600
C2943       C  0.12761227  0.63011903  0.65271648    -0.03100
C2944       C  0.12192073  0.61077176  0.67956443     0.03700
N2945       N  0.12167501  0.58714826  0.66350560     0.66200
H2946       H  0.11358229  0.59916565  0.74340200     0.15100
H2947       H  0.13231824  0.66785230  0.65069802     0.14800
N2948       N  0.12431160  0.68004292  0.73048184     0.73900
O2949       O  0.13982846  0.57458970  0.66792710    -0.39500
O2950       O  0.10223311  0.57715028  0.65733020    -0.39500
O2951       O  0.14385323  0.68968364  0.73750768    -0.40200
O2952       O  0.10656400  0.69298198  0.72437212    -0.40200
C2953       C  0.13382191  0.65028875  0.22028575    -0.12500
C2954       C  0.12200848  0.63200142  0.24186352     0.04500
C2955       C  0.11430998  0.61243760  0.21748898    -0.07800
C2956       C  0.11870153  0.61156863  0.17315272    -0.08600
C2957       C  0.13042459  0.62994893  0.15151958    -0.03100
C2958       C  0.13811472  0.64948397  0.17598840     0.03700
N2959       N  0.14981603  0.66906127  0.15680008     0.66200
H2960       H  0.13986225  0.66565192  0.23786828     0.15100
H2961       H  0.11256933  0.59626133  0.15552215     0.14800
N2962       N  0.10223452  0.59309953  0.23676486     0.73900
O2963       O  0.13800346  0.68716681  0.14695312    -0.39500
O2964       O  0.17162985  0.67105755  0.16236047    -0.39500
O2965       O  0.08042040  0.59133523  0.23091453    -0.40200
O2966       O  0.11375270  0.57499215  0.24772026    -0.40200
C2967       C  0.09656952  0.74282600  0.54522347    -0.12500
C2968       C  0.11760134  0.72977666  0.54641101     0.04500
C2969       C  0.13728981  0.74009923  0.56713911    -0.07800
C2970       C  0.13556910  0.76260876  0.58526101    -0.08600
C2971       C  0.11460552  0.77552769  0.58416011    -0.03100
C2972       C  0.09486288  0.76534589  0.56384248     0.03700
N2973       N  0.07318476  0.77783027  0.56000836     0.66200
H2974       H  0.08118286  0.73562756  0.52950803     0.15100
H2975       H  0.15088950  0.76985864  0.60118303     0.14800
N2976       N  0.15926110  0.72814937  0.57094450     0.73900
O2977       O  0.06889711  0.78898065  0.52559423    -0.39500
O2978       O  0.05634187  0.77188440  0.58379917    -0.39500
O2979       O  0.17566070  0.73392374  0.54598134    -0.40200
O2980       O  0.16424543  0.71801919  0.60609933    -0.40200
C2981       C  0.15307230  0.23572911  0.83372481    -0.12500
C2982       C  0.13191896  0.22808566  0.85218135     0.04500
C2983       C  0.11173757  0.24221537  0.84546129    -0.07800
C2984       C  0.11306946  0.26303675  0.82130554    -0.08600
C2985       C  0.13418738  0.27102575  0.80335584    -0.03100
C2986       C  0.15440002  0.25677124  0.80948360     0.03700
N2987       N  0.17632288  0.26280539  0.79058919     0.66200
H2988       H  0.16866152  0.22487643  0.83676958     0.15100
H2989       H  0.09717779  0.27336467  0.81768166     0.14800
N2990       N  0.08954245  0.23609691  0.86320547     0.73900
O2991       O  0.19171921  0.27255425  0.81377050    -0.39500
O2992       O  0.18255887  0.25230408  0.75663453    -0.39500
O2993       O  0.08385668  0.24482489  0.89909040    -0.40200
O2994       O  0.07353915  0.22939780  0.83787246    -0.40200
C2995       C  0.15088951  0.49712440  0.84627659    -0.12500
C2996       C  0.13251250  0.48283467  0.86114159     0.04500
C2997       C  0.11293192  0.49419906  0.88030851    -0.07800
C2998       C  0.11232977  0.51890730  0.88402492    -0.08600
C2999       C  0.13104453  0.53289636  0.87019806    -0.03100
C3000       C  0.15048822  0.52167359  0.85099936     0.03700
N3001       N  0.17011385  0.53479454  0.83586997     0.66200
H3002       H  0.16616835  0.48923985  0.83145405     0.15100
H3003       H  0.09741802  0.52713389  0.89953221     0.14800
N3004       N  0.09357842  0.48127092  0.89700043     0.73900
O3005       O  0.18833519  0.53560190  0.85902324    -0.39500
O3006       O  0.17180697  0.53881486  0.79597821    -0.39500
O3007       O  0.09177986  0.47908301  0.93736124    -0.40200
O3008       O  0.07543854  0.47917903  0.87391440    -0.40200
C3009       C  0.11154206  0.26398484  0.31385250    -0.12500
C3010       C  0.13351927  0.27229308  0.30065659     0.04500
C3011       C  0.15357717  0.25882659  0.31217496    -0.07800
C3012       C  0.15115188  0.23790287  0.33609216    -0.08600
C3013       C  0.12912027  0.22984220  0.34965766    -0.03100
C3014       C  0.10917378  0.24354120  0.33868701     0.03700
N3015       N  0.08628411  0.23764290  0.35349188     0.66200
H3016       H  0.09581604  0.27391234  0.30630007     0.15100
H3017       H  0.16672963  0.22755273  0.34296765     0.14800
N3018       N  0.17662224  0.26590063  0.30021189     0.73900
O3019       O  0.07931560  0.24656687  0.38843886    -0.39500
O3020       O  0.07122535  0.23094832  0.32624968    -0.39500
O3021       O  0.18946258  0.27576449  0.32806187    -0.40200
O3022       O  0.18610185  0.25617286  0.26810872    -0.40200
C3023       C  0.15270260  0.49679620  0.34700409    -0.12500
C3024       C  0.13286603  0.48273331  0.35379367     0.04500
C3025       C  0.11149178  0.49419306  0.36415215    -0.07800
C3026       C  0.11085482  0.51881158  0.36975017    -0.08600
C3027       C  0.13106678  0.53258152  0.36525399    -0.03100
C3028       C  0.15204891  0.52127481  0.35244190     0.03700
N3029       N  0.17300660  0.53421984  0.34444461     0.66200
H3030       H  0.16925015  0.48872680  0.33828706     0.15100
H3031       H  0.09450333  0.52708143  0.37906546     0.14800
N3032       N  0.09008447  0.48147851  0.36828306     0.73900
O3033       O  0.18916784  0.53367683  0.37235233    -0.39500
O3034       O  0.17806875  0.53931999  0.30598898    -0.39500
O3035       O  0.08103906  0.47965173  0.40516587    -0.40200
O3036       O  0.07708441  0.47941610  0.33546809    -0.40200
C3037       C  0.11825421  0.37963228  0.54353164    -0.12500
C3038       C  0.14023897  0.37540490  0.52517477     0.04500
C3039       C  0.15862851  0.36718463  0.55232612    -0.07800
C3040       C  0.15466533  0.36348602  0.59633520    -0.08600
C3041       C  0.13274850  0.36790324  0.61481459    -0.03100
C3042       C  0.11429969  0.37596364  0.58759911     0.03700
N3043       N  0.09119521  0.37997517  0.60351101     0.66200
H3044       H  0.10373485  0.38533740  0.52335522     0.15100
H3045       H  0.16925074  0.35792686  0.61648718     0.14800
N3046       N  0.18177868  0.36331184  0.53650528     0.73900
O3047       O  0.08454114  0.40094266  0.60990036    -0.39500
O3048       O  0.07593611  0.36420881  0.59775549    -0.39500
O3049       O  0.19734296  0.37845245  0.54467063    -0.40200
O3050       O  0.18800639  0.34253835  0.52728524    -0.40200
C3051       C  0.11708019  0.37599451  0.09241293    -0.12500
C3052       C  0.13754363  0.36964074  0.11513947     0.04500
C3053       C  0.15875253  0.36777133  0.09222973    -0.07800
C3054       C  0.15891760  0.37160413  0.04766459    -0.08600
C3055       C  0.13843824  0.37784514  0.02485161    -0.03100
C3056       C  0.11733754  0.38038363  0.04801131     0.03700
N3057       N  0.09591818  0.38721765  0.02741312     0.66200
H3058       H  0.10063593  0.37790765  0.10939055     0.15100
H3059       H  0.17545575  0.37005365  0.03088451     0.14800
N3060       N  0.18059013  0.36367743  0.11370991     0.73900
O3061       O  0.08153147  0.37142385  0.01651452    -0.39500
O3062       O  0.08864233  0.40811184  0.03217147    -0.39500
O3063       O  0.19015982  0.34365210  0.11049643    -0.40200
O3064       O  0.19304375  0.38119306  0.12389862    -0.40200
C3065       C  0.35361338  0.23789763  0.55045119    -0.12500
C3066       C  0.37544336  0.22878256  0.53764870     0.04500
C3067       C  0.39575082  0.24174694  0.54898369    -0.07800
C3068       C  0.39390713  0.26234366  0.57366298    -0.08600
C3069       C  0.37217132  0.27144800  0.58682121    -0.03100
C3070       C  0.35173349  0.25891643  0.57438201     0.03700
N3071       N  0.32881367  0.26715807  0.58496577     0.66200
H3072       H  0.33771515  0.22833378  0.54286230     0.15100
H3073       H  0.40991583  0.27166584  0.58144575     0.14800
N3074       N  0.41853745  0.23495001  0.53472874     0.73900
O3075       O  0.31680381  0.27734095  0.55611924    -0.39500
O3076       O  0.31841750  0.25797670  0.61659495    -0.39500
O3077       O  0.42709906  0.24556211  0.50270476    -0.40200
O3078       O  0.43230239  0.22523071  0.56134803    -0.40200
C3079       C  0.47826661  0.34704153  0.48411569    -0.12500
C3080       C  0.46795711  0.36900667  0.49291177     0.04500
C3081       C  0.48270602  0.38887129  0.49787236    -0.07800
C3082       C  0.50706760  0.38622443  0.49459028    -0.08600
C3083       C  0.51736921  0.36409974  0.48670313    -0.03100
C3084       C  0.50253075  0.34433020  0.48135715     0.03700
N3085       N  0.51161649  0.32102187  0.47566440     0.66200
H3086       H  0.46740322  0.33148751  0.48068785     0.15100
H3087       H  0.51798505  0.40170882  0.49831590     0.14800
N3088       N  0.47360132  0.41162145  0.50859996     0.73900
O3089       O  0.51354397  0.30778757  0.50826259    -0.39500
O3090       O  0.51054198  0.31174187  0.43873267    -0.39500
O3091       O  0.47447375  0.41831755  0.54737996    -0.40200
O3092       O  0.47169007  0.42694625  0.47922232    -0.40200
C3093       C  0.38931585  0.49086547  0.51459870    -0.12500
C3094       C  0.36686653  0.48149633  0.52159770     0.04500
C3095       C  0.34752446  0.49709781  0.52101121    -0.07800
C3096       C  0.35090383  0.52117745  0.51338671    -0.08600
C3097       C  0.37323509  0.53060207  0.50555107    -0.03100
C3098       C  0.39270575  0.51503900  0.50658015     0.03700
N3099       N  0.41589705  0.52296745  0.49764348     0.66200
H3100       H  0.40447871  0.47930674  0.51515782     0.15100
H3101       H  0.33560044  0.53255035  0.51282864     0.14800
N3102       N  0.32406585  0.48879569  0.52521150     0.73900
O3103       O  0.42987390  0.52611172  0.52875700    -0.39500
O3104       O  0.42415296  0.51951522  0.46050089    -0.39500
O3105       O  0.31339935  0.49240092  0.56013319    -0.40200
O3106       O  0.31228464  0.48496175  0.49140018    -0.40200
C3107       C  0.23689259  0.36334461  0.69397957    -0.12500
C3108       C  0.23065349  0.38386040  0.71688009     0.04500
C3109       C  0.24565138  0.40368238  0.71392679    -0.07800
C3110       C  0.26615288  0.40238024  0.68918649    -0.08600
C3111       C  0.27239147  0.38168586  0.66706699    -0.03100
C3112       C  0.25726019  0.36206877  0.66937693     0.03700
N3113       N  0.26163953  0.34084729  0.64585288     0.66200
H3114       H  0.22574755  0.34792011  0.69448350     0.15100
H3115       H  0.27758397  0.41760626  0.68817344     0.14800
N3116       N  0.24075285  0.42523681  0.73596602     0.73900
O3117       O  0.26862841  0.32285222  0.66624873    -0.39500
O3118       O  0.25148492  0.33803057  0.60998243    -0.39500
O3119       O  0.25181240  0.42976566  0.77030313    -0.40200
O3120       O  0.23145836  0.44200761  0.71516031    -0.40200
C3121       C  0.35386954  0.23825806  0.06033457    -0.12500
C3122       C  0.37480520  0.23013382  0.04173975     0.04500
C3123       C  0.39501739  0.24428469  0.04606414    -0.07800
C3124       C  0.39405041  0.26549705  0.06892899    -0.08600
C3125       C  0.37320050  0.27381583  0.08758242    -0.03100
C3126       C  0.35283853  0.25973807  0.08303826     0.03700
N3127       N  0.33102619  0.26647503  0.10175950     0.66200
H3128       H  0.33827598  0.22743001  0.05876705     0.15100
H3129       H  0.40994574  0.27581564  0.07098908     0.14800
N3130       N  0.41678833  0.23776351  0.02689042     0.73900
O3131       O  0.31589448  0.27660280  0.07833798    -0.39500
O3132       O  0.32446441  0.25618852  0.13571136    -0.39500
O3133       O  0.42194106  0.24643051  0.99067460    -0.40200
O3134       O  0.43304879  0.23010142  0.05086913    -0.40200
C3135       C  0.47528844  0.35823706  0.95404546    -0.12500
C3136       C  0.46689838  0.37228757  0.98744376     0.04500
C3137       C  0.48282899  0.38421456  0.01447987    -0.07800
C3138       C  0.50685497  0.38113224  0.00877186    -0.08600
C3139       C  0.51560506  0.36650903  0.97605839    -0.03100
C3140       C  0.49935768  0.35554870  0.94745952     0.03700
N3141       N  0.50661692  0.34209557  0.91094800     0.66200
H3142       H  0.46304895  0.34913573  0.93305276     0.15100
H3143       H  0.51867399  0.38998898  0.03085174     0.14800
N3144       N  0.47501261  0.39849910  0.04952080     0.73900
O3145       O  0.50665949  0.31987005  0.91369561    -0.39500
O3146       O  0.50520622  0.35149681  0.87409603    -0.39500
O3147       O  0.47564876  0.39001805  0.08714769    -0.40200
O3148       O  0.47454122  0.42062402  0.04483841    -0.40200
C3149       C  0.35277885  0.49957547  0.04270852    -0.12500
C3150       C  0.37205107  0.48535158  0.03168647     0.04500
C3151       C  0.39267430  0.49663599  0.01704401    -0.07800
C3152       C  0.39310998  0.52121352  0.01189439    -0.08600
C3153       C  0.37344448  0.53512760  0.02096873    -0.03100
C3154       C  0.35327192  0.52408318  0.03762936     0.03700
N3155       N  0.33314986  0.53737388  0.05027746     0.66200
H3156       H  0.33686365  0.49166259  0.05483824     0.15100
H3157       H  0.40878065  0.52936128  0.99918441     0.14800
N3158       N  0.41353664  0.48377449  0.00758109     0.73900
O3159       O  0.31502708  0.53663247  0.02686237    -0.39500
O3160       O  0.33111390  0.54316674  0.08937013    -0.39500
O3161       O  0.41936977  0.48144213  0.96862416    -0.40200
O3162       O  0.42918426  0.48229232  0.03636500    -0.40200
C3163       C  0.38580244  0.38125602  0.84649036    -0.12500
C3164       C  0.36352775  0.37919236  0.86486020     0.04500
C3165       C  0.34471027  0.37179762  0.83800583    -0.07800
C3166       C  0.34860678  0.36665035  0.79438619    -0.08600
C3167       C  0.37085463  0.36890562  0.77600544    -0.03100
C3168       C  0.38966373  0.37623624  0.80288261     0.03700
N3169       N  0.41303040  0.37820924  0.78707811     0.66200
H3170       H  0.40065436  0.38623781  0.86637063     0.15100
H3171       H  0.33377386  0.36182126  0.77432455     0.14800
N3172       N  0.32126010  0.37033663  0.85358931     0.73900
O3173       O  0.42119165  0.39851891  0.78005544    -0.39500
O3174       O  0.42709978  0.36134078  0.79366216    -0.39500
O3175       O  0.30717408  0.38689415  0.84479458    -0.40200
O3176       O  0.31313387  0.35033995  0.86320743    -0.40200
C3177       C  0.35545792  0.36193499  0.29342679    -0.12500
C3178       C  0.37646781  0.36942779  0.27478057     0.04500
C3179       C  0.39391131  0.37919408  0.30214105    -0.07800
C3180       C  0.38971660  0.38173607  0.34641799    -0.08600
C3181       C  0.36845985  0.37473035  0.36488611    -0.03100
C3182       C  0.35121963  0.36452208  0.33755980     0.03700
N3183       N  0.32880080  0.35750946  0.35318573     0.66200
H3184       H  0.34158858  0.35482179  0.27332880     0.15100
H3185       H  0.40350249  0.38894757  0.36657968     0.14800
N3186       N  0.41628779  0.38610118  0.28618742     0.73900
O3187       O  0.31201204  0.37199632  0.35062100    -0.39500
O3188       O  0.32429561  0.33576409  0.35583451    -0.39500
O3189       O  0.42080137  0.40781919  0.28291257    -0.40200
O3190       O  0.43306377  0.37160042  0.28881187    -0.40200
C3191       C  0.26923058  0.36426554  0.19292226    -0.12500
C3192       C  0.27659915  0.38577752  0.17507361     0.04500
C3193       C  0.26224605  0.40594612  0.18127308    -0.07800
C3194       C  0.24125467  0.40400872  0.20438750    -0.08600
C3195       C  0.23394956  0.38236834  0.22192132    -0.03100
C3196       C  0.24845086  0.36233243  0.21599357     0.03700
N3197       N  0.24292603  0.33975610  0.23367030     0.66200
H3198       H  0.27970887  0.34842174  0.18930256     0.15100
H3199       H  0.23045914  0.41963806  0.20813657     0.14800
N3200       N  0.26848885  0.42859379  0.16476309     0.73900
O3201       O  0.23493628  0.32416757  0.20862439    -0.39500
O3202       O  0.25342760  0.33323967  0.26758775    -0.39500
O3203       O  0.25797661  0.43634148  0.13173197    -0.40200
O3204       O  0.27869648  0.44300579  0.18945856    -0.40200
C3205       C  0.76931038  0.15267535  0.71243522    -0.12500
C3206       C  0.77618431  0.14572479  0.67088149     0.04500
C3207       C  0.75905212  0.14000715  0.64007251    -0.07800
C3208       C  0.73557246  0.13965414  0.65223283    -0.08600
C3209       C  0.72880844  0.14432010  0.69502656    -0.03100
C3210       C  0.74578689  0.15205658  0.72481222     0.03700
N3211       N  0.73999584  0.15705313  0.76859476     0.66200
H3212       H  0.78251792  0.15693129  0.73643677     0.15100
H3213       H  0.72262614  0.13427867  0.62851340     0.14800
N3214       N  0.76519238  0.13228060  0.59777536     0.73900
O3215       O  0.74146146  0.14069668  0.79613977    -0.39500
O3216       O  0.74025227  0.17820874  0.78127862    -0.39500
O3217       O  0.76531937  0.11044212  0.58975769    -0.40200
O3218       O  0.76354611  0.14669844  0.56686131    -0.40200
C3219       C  0.85105098  0.99715391  0.78047054    -0.12500
C3220       C  0.87173511  0.98385747  0.78073553     0.04500
C3221       C  0.89332415  0.99580008  0.77573020    -0.07800
C3222       C  0.89359890  0.02041010  0.77003417    -0.08600
C3223       C  0.87275987  0.03362614  0.76871255    -0.03100
C3224       C  0.85124759  0.02155988  0.77456052     0.03700
N3225       N  0.82920531  0.03356395  0.77497411     0.66200
H3226       H  0.83428125  0.98848152  0.78418292     0.15100
H3227       H  0.91028540  0.02911050  0.76557596     0.14800
N3228       N  0.91521630  0.98356690  0.77722599     0.73900
O3229       O  0.81642171  0.03268540  0.74169332    -0.39500
O3230       O  0.81974038  0.03771049  0.81086483    -0.39500
O3231       O  0.92627540  0.98061537  0.74252081    -0.40200
O3232       O  0.92641335  0.98303002  0.81241408    -0.40200
C3233       C  0.99751267  0.11570928  0.74083464    -0.12500
C3234       C  0.98679599  0.13794527  0.74283668     0.04500
C3235       C  0.00104347  0.15820460  0.74600000    -0.07800
C3236       C  0.02534338  0.15577923  0.74832496    -0.08600
C3237       C  0.03621139  0.13346698  0.74818440    -0.03100
C3238       C  0.02188170  0.11321839  0.74346324     0.03700
N3239       N  0.03135585  0.08987312  0.74310432     0.66200
H3240       H  0.98688112  0.10002025  0.73701381     0.15100
H3241       H  0.03569271  0.17167037  0.75183476     0.14800
N3242       N  0.99125190  0.18137319  0.74942485     0.73900
O3243       O  0.03128894  0.07811481  0.77768624    -0.39500
O3244       O  0.03246848  0.07900132  0.70766189    -0.39500
O3245       O  0.98862769  0.19019015  0.78645187    -0.40200
O3246       O  0.99218052  0.19498564  0.71724552    -0.40200
C3247       C  0.77023549  0.15199251  0.21878232    -0.12500
C3248       C  0.77632827  0.14782214  0.17551436     0.04500
C3249       C  0.75854083  0.14550649  0.14445301    -0.07800
C3250       C  0.73522609  0.14505332  0.15768544    -0.08600
C3251       C  0.72920380  0.14657184  0.20158276    -0.03100
C3252       C  0.74681174  0.15150600  0.23208300     0.03700
N3253       N  0.74163803  0.15385095  0.27686557     0.66200
H3254       H  0.78388909  0.15390333  0.24293673     0.15100
H3255       H  0.72177334  0.14181939  0.13361970     0.14800
N3256       N  0.76377333  0.14108026  0.10021461     0.73900
O3257       O  0.74345114  0.13598623  0.30100325    -0.39500
O3258       O  0.74189295  0.17414768  0.29358600    -0.39500
O3259       O  0.76344513  0.12009248  0.08662458    -0.40200
O3260       O  0.76185495  0.15778077  0.07346350    -0.40200
C3261       C  0.89070668  0.01601228  0.24701060    -0.12500
C3262       C  0.87178172  0.02996218  0.26030011     0.04500
C3263       C  0.85216110  0.01893058  0.27865072    -0.07800
C3264       C  0.85128944  0.99438984  0.28141171    -0.08600
C3265       C  0.86986903  0.98009001  0.26702640    -0.03100
C3266       C  0.89008357  0.99136207  0.25039090     0.03700
N3267       N  0.91034202  0.97845958  0.23727082     0.66200
H3268       H  0.90598464  0.02425720  0.23295474     0.15100
H3269       H  0.83579495  0.98660689  0.29545852     0.14800
N3270       N  0.83336865  0.03230897  0.29664895     0.73900
O3271       O  0.91393008  0.97566080  0.19747719    -0.39500
O3272       O  0.92747756  0.97702002  0.26303745    -0.39500
O3273       O  0.81414829  0.03336956  0.27648012    -0.40200
O3274       O  0.83361238  0.03644508  0.33663114    -0.40200
C3275       C  0.02300368  0.11112317  0.24917794    -0.12500
C3276       C  0.03519785  0.13258591  0.24678077     0.04500
C3277       C  0.02225929  0.15371910  0.24134451    -0.07800
C3278       C  0.99788427  0.15304593  0.24048412    -0.08600
C3279       C  0.98560961  0.13167189  0.24359953    -0.03100
C3280       C  0.99850258  0.11044781  0.24737764     0.03700
N3281       N  0.98728605  0.08797740  0.24786094     0.66200
H3282       H  0.03247196  0.09467247  0.25353282     0.15100
H3283       H  0.98849598  0.16958810  0.23657838     0.14800
N3284       N  0.03337121  0.17604520  0.23525202     0.73900
O3285       O  0.98563618  0.07657047  0.21304571    -0.39500
O3286       O  0.98576260  0.07701198  0.28316329    -0.39500
O3287       O  0.03585353  0.18364310  0.19728682    -0.40200
O3288       O  0.03344288  0.19065109  0.26594193    -0.40200
C3289       C  0.88029152  0.15427019  0.96876916    -0.12500
C3290       C  0.87764538  0.13141401  0.98539098     0.04500
C3291       C  0.87970976  0.11194843  0.95730542    -0.07800
C3292       C  0.88413904  0.11564342  0.91359149    -0.08600
C3293       C  0.88682335  0.13845961  0.89676283    -0.03100
C3294       C  0.88504564  0.15798687  0.92501935     0.03700
N3295       N  0.88941680  0.18154477  0.91076112     0.66200
H3296       H  0.87965932  0.16935483  0.99024693     0.15100
H3297       H  0.88482492  0.10043803  0.89242200     0.14800
N3298       N  0.87665518  0.08829060  0.97213659     0.73900
O3299       O  0.87236468  0.19560656  0.90663259    -0.39500
O3300       O  0.90971488  0.18990245  0.91571821    -0.39500
O3301       O  0.85715614  0.07838995  0.96601294    -0.40200
O3302       O  0.89455896  0.07562406  0.97854485    -0.40200
C3303       C  0.88262381  0.15185938  0.41887087    -0.12500
C3304       C  0.88230460  0.13048033  0.39595714     0.04500
C3305       C  0.87872139  0.10926704  0.41896624    -0.07800
C3306       C  0.87630192  0.10982994  0.46394206    -0.08600
C3307       C  0.87689487  0.13120619  0.48679575    -0.03100
C3308       C  0.87997267  0.15245129  0.46370644     0.03700
N3309       N  0.88178664  0.17468384  0.48516408     0.66200
H3310       H  0.88523812  0.16835380  0.40182313     0.15100
H3311       H  0.87368961  0.09338887  0.48115769     0.14800
N3312       N  0.87606643  0.08719228  0.39730395     0.73900
O3313       O  0.90182356  0.18208586  0.49577103    -0.39500
O3314       O  0.86520518  0.18933471  0.48135815    -0.39500
O3315       O  0.89299808  0.07282527  0.39734465    -0.40200
O3316       O  0.85566966  0.07954807  0.39023318    -0.40200
C3317       C  0.76332351  0.35052057  0.98265874    -0.12500
C3318       C  0.77766965  0.35240848  0.94653537     0.04500
C3319       C  0.76721780  0.35305713  0.90501514    -0.07800
C3320       C  0.74287385  0.35365765  0.90061126    -0.08600
C3321       C  0.72861100  0.35421438  0.93691886    -0.03100
C3322       C  0.73895388  0.35165611  0.97829434     0.03700
N3323       N  0.72514230  0.35034071  0.01639500     0.66200
H3324       H  0.77102781  0.34982485  0.01467422     0.15100
H3325       H  0.73518544  0.35525135  0.86868066     0.14800
N3326       N  0.78097947  0.35360696  0.86679505     0.73900
O3327       O  0.72295525  0.36861347  0.03926323    -0.39500
O3328       O  0.72250732  0.33040974  0.03386760    -0.39500
O3329       O  0.78390967  0.33458743  0.84638347    -0.40200
O3330       O  0.78299881  0.37290474  0.84684735    -0.40200
C3331       C  0.89626275  0.47863401  0.86529296    -0.12500
C3332       C  0.87566993  0.46524974  0.86294584     0.04500
C3333       C  0.85430425  0.47691959  0.85325224    -0.07800
C3334       C  0.85384080  0.50132818  0.84810051    -0.08600
C3335       C  0.87419511  0.51489694  0.85217086    -0.03100
C3336       C  0.89574710  0.50322147  0.86009172     0.03700
N3337       N  0.91736056  0.51574533  0.86231760     0.66200
H3338       H  0.91284811  0.47010702  0.87252409     0.15100
H3339       H  0.83711256  0.50975146  0.84156287     0.14800
N3340       N  0.83273759  0.46445999  0.84835632     0.73900
O3341       O  0.92653519  0.51926013  0.89884243    -0.39500
O3342       O  0.93024495  0.51615646  0.82939379    -0.39500
O3343       O  0.81777993  0.46572431  0.87808893    -0.40200
O3344       O  0.82604874  0.45883822  0.81090862    -0.40200
C3345       C  0.00231348  0.34499405  0.91137207    -0.12500
C3346       C  0.98961490  0.36614275  0.90810478     0.04500
C3347       C  0.00201771  0.38760148  0.90418947    -0.07800
C3348       C  0.02649642  0.38725320  0.90185203    -0.08600
C3349       C  0.03911677  0.36591857  0.90346342    -0.03100
C3350       C  0.02667596  0.34464156  0.90929916     0.03700
N3351       N  0.03831678  0.32240080  0.91359917     0.66200
H3352       H  0.99323846  0.32835075  0.91522021     0.15100
H3353       H  0.03557033  0.40384982  0.89746523     0.14800
N3354       N  0.99037801  0.40996211  0.90380531     0.73900
O3355       O  0.04198918  0.31429933  0.95095291    -0.39500
O3356       O  0.03818391  0.30835546  0.88204131    -0.39500
O3357       O  0.98911038  0.42142784  0.93859839    -0.40200
O3358       O  0.98868023  0.42100626  0.86856461    -0.40200
C3359       C  0.91274542  0.26105147  0.05846348    -0.12500
C3360       C  0.89105169  0.27272363  0.05364589     0.04500
C3361       C  0.87088015  0.26168504  0.07079684    -0.07800
C3362       C  0.87269020  0.23972694  0.09069147    -0.08600
C3363       C  0.89408491  0.22774099  0.09434486    -0.03100
C3364       C  0.91447775  0.23885826  0.07860836     0.03700
N3365       N  0.93692473  0.22773095  0.08105297     0.66200
H3366       H  0.92857043  0.26899906  0.04604390     0.15100
H3367       H  0.85682446  0.23193613  0.10334341     0.14800
N3368       N  0.84808260  0.27198819  0.06808908     0.73900
O3369       O  0.94457210  0.21710123  0.04824574    -0.39500
O3370       O  0.95130354  0.23460288  0.10938789    -0.39500
O3371       O  0.83412513  0.26447411  0.03958154    -0.40200
O3372       O  0.83978080  0.28163965  0.10135755    -0.40200
C3373       C  0.77037025  0.34983637  0.41566203    -0.12500
C3374       C  0.77757379  0.35402346  0.45842784     0.04500
C3375       C  0.76055943  0.35659709  0.49061751    -0.07800
C3376       C  0.73690979  0.35728057  0.47889501    -0.08600
C3377       C  0.72972865  0.35524998  0.43554399    -0.03100
C3378       C  0.74662618  0.35019886  0.40398300     0.03700
N3379       N  0.74037989  0.34752057  0.35962249     0.66200
H3380       H  0.78339397  0.34768790  0.39064024     0.15100
H3381       H  0.72407216  0.36059385  0.50380028     0.14800
N3382       N  0.76687315  0.36038502  0.53468830     0.73900
O3383       O  0.74300723  0.36478546  0.33438705    -0.39500
O3384       O  0.73907283  0.32698647  0.34408291    -0.39500
O3385       O  0.76425472  0.38069921  0.55066483    -0.40200
O3386       O  0.76811799  0.34281332  0.55963996    -0.40200
C3387       C  0.85728685  0.47533802  0.34725245    -0.12500
C3388       C  0.87638238  0.46718301  0.37159442     0.04500
C3389       C  0.89261502  0.48363508  0.38788621    -0.07800
C3390       C  0.88952981  0.50771713  0.37932909    -0.08600
C3391       C  0.87029100  0.51610350  0.35507598    -0.03100
C3392       C  0.85400847  0.49937957  0.33890666     0.03700
N3393       N  0.83363661  0.50621142  0.31497494     0.66200
H3394       H  0.84449239  0.46288532  0.33501438     0.15100
H3395       H  0.90221543  0.51991188  0.39261819     0.14800
N3396       N  0.91132549  0.47655502  0.41583718     0.73900
O3397       O  0.83379215  0.50408258  0.27447502    -0.39500
O3398       O  0.81421443  0.50714365  0.33413908    -0.39500
O3399       O  0.93187900  0.47584607  0.40116339    -0.40200
O3400       O  0.90845594  0.47800595  0.45607705    -0.40200
C3401       C  0.99971448  0.38607849  0.40152126    -0.12500
C3402       C  0.98907441  0.36395171  0.39645318     0.04500
C3403       C  0.00342050  0.34383062  0.39188738    -0.07800
C3404       C  0.02771615  0.34614073  0.39223675    -0.08600
C3405       C  0.03864256  0.36828840  0.39610409    -0.03100
C3406       C  0.02419658  0.38847733  0.40157197     0.03700
N3407       N  0.03374348  0.41156383  0.40690494     0.66200
H3408       H  0.98894471  0.40164536  0.40631695     0.15100
H3409       H  0.03804827  0.33024120  0.38797839     0.14800
N3410       N  0.99375304  0.32096747  0.38431669     0.73900
O3411       O  0.03423173  0.42525034  0.37479475    -0.39500
O3412       O  0.03458159  0.42030043  0.44430698    -0.39500
O3413       O  0.99304258  0.31327518  0.34614596    -0.40200
O3414       O  0.99295891  0.30643357  0.41512834    -0.40200
C3415       C  0.87963578  0.34581839  0.66729808    -0.12500
C3416       C  0.87923185  0.36849591  0.64912690     0.04500
C3417       C  0.88359663  0.38807878  0.67634450    -0.07800
C3418       C  0.88822934  0.38462786  0.72035734    -0.08600
C3419       C  0.88861917  0.36195821  0.73859487    -0.03100
C3420       C  0.88437984  0.34235249  0.71131492     0.03700
N3421       N  0.88599533  0.31868459  0.72701222     0.66200
H3422       H  0.87713903  0.33050298  0.64686360     0.15100
H3423       H  0.89076538  0.39997623  0.74068734     0.14800
N3424       N  0.88245713  0.41173459  0.66044958     0.73900
O3425       O  0.86740360  0.30770211  0.73557027    -0.39500
O3426       O  0.90446007  0.30704810  0.71989089    -0.39500
O3427       O  0.86379842  0.42337637  0.66558399    -0.40200
O3428       O  0.90129134  0.42270723  0.65381279    -0.40200
C3429       C  0.88723403  0.38729641  0.21865134    -0.12500
C3430       C  0.88598905  0.36485663  0.23757741     0.04500
C3431       C  0.87997318  0.34538615  0.21096909    -0.07800
C3432       C  0.87539657  0.34875046  0.16695201    -0.08600
C3433       C  0.87670508  0.37116153  0.14806580    -0.03100
C3434       C  0.88256202  0.39065535  0.17463294     0.03700
N3435       N  0.88291475  0.41419844  0.15808405     0.66200
H3436       H  0.89105328  0.40258924  0.23842914     0.15100
H3437       H  0.87158840  0.33346924  0.14711755     0.14800
N3438       N  0.87905060  0.32186301  0.22750833     0.73900
O3439       O  0.86477933  0.42681892  0.16173066    -0.39500
O3440       O  0.90239119  0.42412887  0.15225783    -0.39500
O3441       O  0.85932351  0.31288615  0.23528461    -0.40200
O3442       O  0.89638660  0.30836917  0.22179160    -0.40200
C3443       C  0.91286288  0.26372099  0.56341161    -0.12500
C3444       C  0.89307211  0.26999784  0.53907986     0.04500
C3445       C  0.87437326  0.25396971  0.53540664    -0.07800
C3446       C  0.87527380  0.23266564  0.55754285    -0.08600
C3447       C  0.89448550  0.22663751  0.58383893    -0.03100
C3448       C  0.91380226  0.24228373  0.58582012     0.03700
N3449       N  0.93431120  0.23717829  0.61076651     0.66200
H3450       H  0.92742954  0.27586235  0.56618143     0.15100
H3451       H  0.86049930  0.22085875  0.55408520     0.14800
N3452       N  0.85445752  0.25864819  0.50861389     0.73900
O3453       O  0.95234538  0.22974031  0.59167570    -0.39500
O3454       O  0.93656154  0.24658197  0.64742528    -0.39500
O3455       O  0.85405500  0.25018668  0.47098684    -0.40200
O3456       O  0.83533466  0.26407704  0.52628014    -0.40200
loop_ 
_geom_bond_atom_site_label_1 
_geom_bond_atom_site_label_2 
_geom_bond_distance 
_geom_bond_site_symmetry_2 
_ccdc_geom_bond_type 
Zr1           O2   2.442       .  S
Zr1           O3   2.478       .  S
Zr1           O4   2.468       .  S
Zr1           O7   2.459       .  S
Zr1           O9   2.385       .  S
Zr1          O10   2.389       .  S
Zr1          O11   2.419       .  S
Zr1          O12   2.401       .  S
O2           H58   0.990       .  S
O2           H66   0.991       .  S
O3           C23   1.293       .  A
O4           C25   1.290       .  A
O5          Zr15   2.420       .  S
O5           C24   1.283       .  A
O6          Zr14   2.410       .  S
O6           C25   1.280       .  A
O7           C24   1.288       .  A
O8          Zr16   2.397       .  S
O8           C23   1.276       .  A
O9          Zr14   2.399       .  S
O9          Zr16   2.379       .  S
O10         Zr15   2.393       .  S
O10         Zr16   2.386       .  S
O10          H45   0.966       .  S
O11         Zr14   2.401       .  S
O11         Zr31   2.396       .  S
O11          H48   0.966       .  S
O12         Zr15   2.379       .  S
O12         Zr31   2.377       .  S
Zr13         O38   2.443       .  S
Zr13         O32   2.472       .  S
Zr13         O40   2.476       .  S
Zr13         O28   2.425       .  S
Zr13         O19   2.393       .  S
Zr13         O20   2.427       .  S
Zr13         O21   2.380       .  S
Zr13         O22   2.386       .  S
Zr14         O33   2.436       .  S
Zr14         O26   2.434       .  S
Zr14         O27   2.428       .  S
Zr14         O20   2.391       .  S
Zr14         O21   2.389       .  S
Zr15         O17   2.435       .  S
Zr15         O39   2.440       .  S
Zr15         O41   2.408       .  S
Zr15         O19   2.380       .  S
Zr15         O22   2.399       .  S
Zr16         O42   2.435       .  S
Zr16         O43   2.435       .  S
Zr16         O18   2.439       .  S
Zr16         O19   2.379       .  S
Zr16         O20   2.386       .  S
O17          H54   0.990       .  S
O18          H49   0.990       .  S
O18          H63   0.990       .  S
O20          H46   0.963       .  S
O21         Zr31   2.382       .  S
O22         Zr31   2.392       .  S
O22          H47   0.966       .  S
C23        C3430   1.490       .  S
C24        C3388   1.475       .  S
C25        C3402   1.479       .  S
O26          H62   0.990       .  S
O27          C29   1.284       .  A
O28          C29   1.283       .  A
C29        C3444   1.468       .  S
O30         Zr31   2.438       .  S
O30          H59   0.990       .  S
Zr31         O34   2.436       .  S
Zr31         O35   2.440       .  S
Zr31         O36   2.399       .  S
O32          C37   1.291       .  A
O33          H50   0.990       .  S
O33          H65   0.990       .  S
O34          H51   0.990       .  S
O35          H55   0.990       .  S
O35          H64   0.990       .  S
O36          C37   1.276       .  A
C37        C3416   1.488       .  S
O38          H57   0.990       .  S
O38          H61   0.990       .  S
O39          H53   0.990       .  S
O39          H60   0.990       .  S
O40          C44   1.288       .  A
O41          C44   1.280       .  A
O42          H52   0.990       .  S
O43          H56   0.990       .  S
C44        C3374   1.471       .  S
Zr67         O68   2.441       .  S
Zr67         O69   2.470       .  S
Zr67         O70   2.460       .  S
Zr67         O73   2.459       .  S
Zr67         O75   2.398       .  S
Zr67         O76   2.384       .  S
Zr67         O77   2.426       .  S
Zr67         O78   2.404       .  S
O68         H124   0.990       .  S
O68         H132   0.990       .  S
O69          C89   1.291       .  A
O70          C91   1.287       .  A
O71         Zr81   2.401       .  S
O71          C90   1.277       .  A
O72         Zr80   2.423       .  S
O72          C91   1.285       .  A
O73          C90   1.290       .  A
O74         Zr82   2.409       .  S
O74          C89   1.277       .  A
O75         Zr80   2.407       .  S
O75         Zr82   2.370       .  S
O76         Zr81   2.383       .  S
O76         Zr82   2.388       .  S
O76         H111   0.965       .  S
O77         Zr80   2.412       .  S
O77         Zr97   2.380   1_556  S
O77         H114   0.964       .  S
O78         Zr81   2.377       .  S
O78         Zr97   2.385   1_556  S
Zr79        O104   2.437       .  S
Zr79         O98   2.479       .  S
Zr79        O106   2.471   1_554  S
Zr79         O94   2.429       .  S
Zr79         O86   2.422   1_554  S
Zr79         O87   2.375       .  S
Zr79         O88   2.382   1_554  S
Zr79         O85   2.287   1_554  S
Zr80         O99   2.438   1_556  S
Zr80         O92   2.436       .  S
Zr80         O93   2.450   1_556  S
Zr80         O86   2.397       .  S
Zr80         O87   2.394   1_556  S
Zr81         O83   2.437       .  S
Zr81        O105   2.435       .  S
Zr81        O107   2.388       .  S
Zr81         O88   2.395       .  S
Zr81         O85   2.267       .  S
Zr82        O108   2.429       .  S
Zr82        O109   2.436       .  S
Zr82         O84   2.437       .  S
Zr82         O86   2.392       .  S
Zr82         O85   2.296       .  S
O83         H120   0.990       .  S
O84         H115   0.990       .  S
O84         H129   0.990       .  S
O86         H112   0.965       .  S
O87         Zr97   2.386       .  S
O88         Zr97   2.393   1_556  S
O88         H113   0.972   1_556  S
C89        C3419   1.490       .  S
C90        C3332   1.482       .  S
C91        C3346   1.480       .  S
O92         H128   0.990       .  S
O93          C95   1.289       .  A
O94          C95   1.282       .  A
C95        C3360   1.495       .  S
O96         Zr97   2.437   1_556  S
O96         H125   0.990   1_556  S
Zr97        O100   2.437       .  S
Zr97        O101   2.438       .  S
Zr97        O102   2.385       .  S
O98         C103   1.292       .  A
O99         H116   0.990       .  S
O99         H131   0.990       .  S
O100        H117   0.990       .  S
O101        H121   0.990       .  S
O101        H130   0.990       .  S
O102        C103   1.274       .  A
C103       C3433   1.487       .  S
O104        H123   0.990       .  S
O104        H127   0.990       .  S
O105        H119   0.989       .  S
O105        H126   0.990       .  S
O106        C110   1.291       .  A
O107        C110   1.276       .  A
O108        H118   0.990       .  S
O109        H122   0.990       .  S
C110       C3318   1.474       .  S
Zr133       O134   2.441       .  S
Zr133       O135   2.466       .  S
Zr133       O136   2.469       .  S
Zr133       O139   2.439       .  S
Zr133       O141   2.391       .  S
Zr133       O142   2.386       .  S
Zr133       O143   2.418       .  S
Zr133       O144   2.405       .  S
O134        H190   0.990       .  S
O134        H198   0.990       .  S
O135        C155   1.288       .  A
O136        C157   1.289       .  A
O137       Zr147   2.424       .  S
O137        C156   1.281       .  A
O138       Zr146   2.394       .  S
O138        C157   1.279       .  A
O139        C156   1.286       .  A
O140       Zr148   2.404       .  S
O140        C155   1.279       .  A
O141       Zr146   2.405       .  S
O141       Zr148   2.377       .  S
O142       Zr147   2.391       .  S
O142       Zr148   2.386       .  S
O142        H177   0.969       .  S
O143       Zr146   2.407       .  S
O143       Zr163   2.390       .  S
O143        H180   0.966       .  S
O144       Zr147   2.383       .  S
O144       Zr163   2.384       .  S
Zr145       O170   2.441       .  S
Zr145       O164   2.451       .  S
Zr145       O172   2.473       .  S
Zr145       O160   2.437       .  S
Zr145       O151   2.384       .  S
Zr145       O152   2.419       .  S
Zr145       O153   2.373       .  S
Zr145       O154   2.388       .  S
Zr146       O165   2.437       .  S
Zr146       O158   2.435       .  S
Zr146       O159   2.433       .  S
Zr146       O152   2.393       .  S
Zr146       O153   2.388       .  S
Zr147       O149   2.436       .  S
Zr147       O171   2.438       .  S
Zr147       O173   2.416       .  S
Zr147       O151   2.368       .  S
Zr147       O154   2.396       .  S
Zr148       O174   2.435       .  S
Zr148       O175   2.435       .  S
Zr148       O150   2.436       .  S
Zr148       O151   2.367       .  S
Zr148       O152   2.399       .  S
O149        H186   0.990       .  S
O150        H181   0.990       .  S
O150        H195   0.990       .  S
O152        H178   0.964       .  S
O153       Zr163   2.382       .  S
O154       Zr163   2.392       .  S
O154        H179   0.966       .  S
C155       C3304   1.484       .  S
C156       C3262   1.474       .  S
C157       C3279   1.481       .  S
O158        H194   0.990       .  S
O159        C161   1.282       .  A
O160        C161   1.287       .  A
C161       C3363   1.487       .  S
O162       Zr163   2.440       .  S
O162        H191   0.990       .  S
Zr163       O166   2.439       .  S
Zr163       O167   2.441       .  S
Zr163       O168   2.397       .  S
O164        C169   1.286       .  A
O165        H182   0.990       .  S
O165        H197   0.990       .  S
O166        H183   0.990       .  S
O167        H187   0.990       .  S
O167        H196   0.989       .  S
O168        C169   1.276       .  A
C169       C3290   1.475   1_554  S
O170        H189   0.990       .  S
O170        H193   0.990       .  S
O171        H185   0.990       .  S
O171        H192   0.990       .  S
O172        C176   1.290       .  A
O173        C176   1.282       .  A
O174        H184   0.990       .  S
O175        H188   0.990       .  S
C176       C3248   1.469       .  S
Zr199       O200   2.442       .  S
Zr199       O201   2.452       .  S
Zr199       O202   2.471       .  S
Zr199       O205   2.479       .  S
Zr199       O207   2.388       .  S
Zr199       O208   2.385       .  S
Zr199       O209   2.417       .  S
Zr199       O210   2.400       .  S
O200        H256   0.990       .  S
O200        H264   0.990       .  S
O201        C221   1.288       .  A
O202        C223   1.292       .  A
O203       Zr213   2.404       .  S
O203        C222   1.278       .  A
O204       Zr212   2.396       .  S
O204        C223   1.277       .  A
O205        C222   1.295       .  A
O206       Zr214   2.409       .  S
O206        C221   1.278       .  A
O207       Zr212   2.396       .  S
O207       Zr214   2.377       .  S
O208       Zr213   2.392       .  S
O208       Zr214   2.387       .  S
O208        H243   0.966       .  S
O209       Zr212   2.407       .  S
O209       Zr229   2.393       .  S
O209        H246   0.966       .  S
O210       Zr213   2.385       .  S
O210       Zr229   2.386       .  S
Zr211       O236   2.440       .  S
Zr211       O230   2.453       .  S
Zr211       O238   2.461       .  S
Zr211       O226   2.427       .  S
Zr211       O217   2.391       .  S
Zr211       O218   2.419       .  S
Zr211       O219   2.371       .  S
Zr211       O220   2.385       .  S
Zr212       O231   2.437       .  S
Zr212       O224   2.433       .  S
Zr212       O225   2.412       .  S
Zr212       O218   2.395       .  S
Zr212       O219   2.389       .  S
Zr213       O215   2.436       .  S
Zr213       O237   2.441       .  S
Zr213       O239   2.399       .  S
Zr213       O217   2.374       .  S
Zr213       O220   2.397       .  S
Zr214       O240   2.435       .  S
Zr214       O241   2.435       .  S
Zr214       O216   2.436       .  S
Zr214       O217   2.379       .  S
Zr214       O218   2.398       .  S
O215        H252   0.989       .  S
O216        H247   0.990       .  S
O216        H261   0.990       .  S
O218        H244   0.965       .  S
O219       Zr229   2.374       .  S
O220       Zr229   2.387       .  S
O220        H245   0.972       .  S
C221       C3293   1.481       .  S
C222       C3223   1.491       .  S
C223       C3234   1.477       .  S
O224        H260   0.990       .  S
O225        C227   1.279       .  A
O226        C227   1.285       .  A
C227       C3447   1.482       .  S
O228       Zr229   2.440       .  S
O228        H257   0.990       .  S
Zr229       O232   2.438       .  S
Zr229       O233   2.440       .  S
Zr229       O234   2.411       .  S
O230        C235   1.286       .  A
O231        H248   0.990       .  S
O231        H263   0.990       .  S
O232        H249   0.990       .  S
O233        H253   0.990       .  S
O233        H262   0.990       .  S
O234        C235   1.280       .  A
C235       C3307   1.481       .  S
O236        H255   0.990       .  S
O236        H259   0.990       .  S
O237        H251   0.990       .  S
O237        H258   0.990       .  S
O238        C242   1.288       .  A
O239        C242   1.279       .  A
O240        H250   0.990       .  S
O241        H254   0.990       .  S
C242       C3206   1.463       .  S
Zr265       O266   2.443       .  S
Zr265       O267   2.465       .  S
Zr265       O268   2.469       .  S
Zr265       O271   2.429       .  S
Zr265       O273   2.387       .  S
Zr265       O274   2.389       .  S
Zr265       O275   2.431       .  S
Zr265       O276   2.415       .  S
O266        H322   0.991       .  S
O266        H330   0.991       .  S
O267        C287   1.291       .  A
O268        C289   1.283       .  A
O269       Zr279   2.437       .  S
O269        C288   1.283       .  A
O270       Zr278   2.424       .  S
O270        C289   1.276       .  A
O271        C288   1.286       .  A
O272       Zr280   2.403       .  S
O272        C287   1.277       .  A
O273       Zr278   2.407       .  S
O273       Zr280   2.386       .  S
O274       Zr279   2.393       .  S
O274       Zr280   2.372       .  S
O274        H309   0.965       .  S
O275       Zr278   2.399       .  S
O275       Zr295   2.378       .  S
O275        H312   0.964       .  S
O276       Zr279   2.393       .  S
O276       Zr295   2.393       .  S
Zr277       O302   2.439   1_554  S
Zr277       O296   2.474   1_554  S
Zr277       O304   2.454       .  S
Zr277       O292   2.442   1_554  S
Zr277       O283   2.412       .  S
Zr277       O284   2.419       .  S
Zr277       O285   2.376   1_554  S
Zr277       O286   2.391       .  S
Zr278       O297   2.437   1_554  S
Zr278       O290   2.435       .  S
Zr278       O291   2.433       .  S
Zr278       O284   2.393       .  S
Zr278       O285   2.390   1_554  S
Zr279       O281   2.437       .  S
Zr279       O303   2.438       .  S
Zr279       O305   2.424       .  S
Zr279       O283   2.392       .  S
Zr279       O286   2.400       .  S
Zr280       O306   2.434       .  S
Zr280       O307   2.435       .  S
Zr280       O282   2.438       .  S
Zr280       O283   2.395       .  S
Zr280       O284   2.368       .  S
O281        H318   0.990       .  S
O282        H313   0.990       .  S
O282        H327   0.990       .  S
O284        H310   0.967       .  S
O285       Zr295   2.394   1_556  S
O286       Zr295   2.383       .  S
O286        H311   0.968   1_554  S
C287       C3178   1.491       .  S
C288       C3192   1.494       .  S
C289       C3125   1.499       .  S
O290        H326   0.990       .  S
O291        C293   1.284   1_554  A
O292        C293   1.284       .  A
C293       C3136   1.462       .  S
O294       Zr295   2.437       .  S
O294        H323   0.990       .  S
Zr295       O298   2.438   1_554  S
Zr295       O299   2.440   1_554  S
Zr295       O300   2.394   1_554  S
O296        C301   1.292       .  A
O297        H314   0.990       .  S
O297        H329   0.989   1_556  S
O298        H315   0.990       .  S
O299        H319   0.990       .  S
O299        H328   0.990       .  S
O300        C301   1.274       .  A
C301       C3164   1.492       .  S
O302        H321   0.990       .  S
O302        H325   0.990       .  S
O303        H317   0.990       .  S
O303        H324   0.990       .  S
O304        C308   1.286       .  A
O305        C308   1.285       .  A
O306        H316   0.990       .  S
O307        H320   0.990       .  S
C308       C3150   1.492       .  S
Zr331       O332   2.441       .  S
Zr331       O333   2.480       .  S
Zr331       O334   2.471       .  S
Zr331       O337   2.434       .  S
Zr331       O339   2.394       .  S
Zr331       O340   2.394       .  S
Zr331       O341   2.436       .  S
Zr331       O342   2.418       .  S
O332        H388   0.990       .  S
O332        H396   0.991       .  S
O333        C353   1.293       .  A
O334        C355   1.282       .  A
O335       Zr345   2.443       .  S
O335        C354   1.288       .  A
O336       Zr344   2.424       .  S
O336        C355   1.277       .  A
O337        C354   1.284       .  A
O338       Zr346   2.395       .  S
O338        C353   1.275       .  A
O339       Zr344   2.408       .  S
O339       Zr346   2.390       .  S
O340       Zr345   2.395       .  S
O340       Zr346   2.374       .  S
O340        H375   0.965       .  S
O341       Zr344   2.396       .  S
O341       Zr361   2.372       .  S
O341        H378   0.966       .  S
O342       Zr345   2.388       .  S
O342       Zr361   2.394       .  S
Zr343       O368   2.442       .  S
Zr343       O362   2.471       .  S
Zr343       O370   2.453       .  S
Zr343       O358   2.454       .  S
Zr343       O349   2.411       .  S
Zr343       O350   2.417       .  S
Zr343       O351   2.380       .  S
Zr343       O352   2.392       .  S
Zr344       O363   2.436       .  S
Zr344       O356   2.434       .  S
Zr344       O357   2.434       .  S
Zr344       O350   2.392       .  S
Zr344       O351   2.389       .  S
Zr345       O347   2.434       .  S
Zr345       O369   2.438       .  S
Zr345       O371   2.432       .  S
Zr345       O349   2.399       .  S
Zr345       O352   2.400       .  S
Zr346       O372   2.438       .  S
Zr346       O373   2.436       .  S
Zr346       O348   2.439       .  S
Zr346       O349   2.393       .  S
Zr346       O350   2.367       .  S
O347        H384   0.990       .  S
O348        H379   0.990       .  S
O348        H393   0.990       .  S
O350        H376   0.965       .  S
O351       Zr361   2.393       .  S
O352       Zr361   2.379       .  S
O352        H377   0.969       .  S
C353       C3167   1.490       .  S
C354       C3111   1.487       .  S
C355       C3069   1.501       .  S
O356        H392   0.990       .  S
O357        C359   1.286       .  A
O358        C359   1.287       .  A
C359       C3080   1.486       .  S
O360       Zr361   2.437       .  S
O360        H389   0.990       .  S
Zr361       O364   2.437       .  S
Zr361       O365   2.439       .  S
Zr361       O366   2.397       .  S
O362        C367   1.292       .  A
O363        H380   0.989       .  S
O363        H395   0.990       .  S
O364        H381   0.990       .  S
O365        H385   0.990       .  S
O365        H394   0.990       .  S
O366        C367   1.276       .  A
C367       C3181   1.493       .  S
O368        H387   0.990       .  S
O368        H391   0.991       .  S
O369        H383   0.990       .  S
O369        H390   0.990       .  S
O370        C374   1.287       .  A
O371        C374   1.284       .  A
O372        H382   0.990       .  S
O373        H386   0.990       .  S
C374       C3094   1.491       .  S
Zr397       O398   2.439       .  S
Zr397       O399   2.462       .  S
Zr397       O400   2.464       .  S
Zr397       O403   2.424       .  S
Zr397       O405   2.395       .  S
Zr397       O406   2.394       .  S
Zr397       O407   2.434       .  S
Zr397       O408   2.416       .  S
O398        H454   0.990       .  S
O398        H462   0.991       .  S
O399        C419   1.288       .  A
O400        C421   1.280       .  A
O401       Zr411   2.452       .  S
O401        C420   1.289       .  A
O402       Zr410   2.417       .  S
O402        C421   1.275       .  A
O403        C420   1.283       .  A
O404       Zr412   2.395       .  S
O404        C419   1.277       .  A
O405       Zr410   2.410       .  S
O405       Zr412   2.382       .  S
O406       Zr411   2.386       .  S
O406       Zr412   2.372       .  S
O406        H441   0.964       .  S
O407       Zr410   2.398       .  S
O407       Zr427   2.376       .  S
O407        H444   0.964       .  S
O408       Zr411   2.386       .  S
O408       Zr427   2.387       .  S
Zr409       O434   2.441       .  S
Zr409       O428   2.477       .  S
Zr409       O436   2.462       .  S
Zr409       O424   2.465       .  S
Zr409       O415   2.412       .  S
Zr409       O416   2.419       .  S
Zr409       O417   2.379       .  S
Zr409       O418   2.403       .  S
Zr410       O429   2.436       .  S
Zr410       O422   2.435       .  S
Zr410       O423   2.426       .  S
Zr410       O416   2.394       .  S
Zr410       O417   2.380       .  S
Zr411       O413   2.434       .  S
Zr411       O435   2.438       .  S
Zr411       O437   2.434       .  S
Zr411       O415   2.391       .  S
Zr411       O418   2.399       .  S
Zr412       O438   2.434       .  S
Zr412       O439   2.435       .  S
Zr412       O414   2.438       .  S
Zr412       O415   2.387       .  S
Zr412       O416   2.373       .  S
O413        H450   0.990       .  S
O414        H445   0.990       .  S
O414        H459   0.990       .  S
O416        H442   0.964       .  S
O417       Zr427   2.393       .  S
O418       Zr427   2.384       .  S
O418        H443   0.968       .  S
C419       C3052   1.483       .  S
C420       C3195   1.490       .  S
C421       C3010   1.496       .  S
O422        H458   0.990       .  S
O423        C425   1.285       .  A
O424        C425   1.288       .  A
C425       C3405   1.494       .  S
O426       Zr427   2.438       .  S
O426        H455   0.991       .  S
Zr427       O430   2.437       .  S
Zr427       O431   2.436       .  S
Zr427       O432   2.388       .  S
O428        C433   1.293       .  A
O429        H446   0.990       .  S
O429        H461   0.989       .  S
O430        H447   0.990       .  S
O431        H451   0.990       .  S
O431        H460   0.990       .  S
O432        C433   1.275       .  A
C433       C3038   1.489       .  S
O434        H453   0.990       .  S
O434        H457   0.990       .  S
O435        H449   0.990       .  S
O435        H456   0.990       .  S
O436        C440   1.287       .  A
O437        C440   1.287       .  A
O438        H448   0.990       .  S
O439        H452   0.990       .  S
C440       C3024   1.495       .  S
Zr463       O464   2.443       .  S
Zr463       O465   2.476       .  S
Zr463       O466   2.485       .  S
Zr463       O469   2.428       .  S
Zr463       O471   2.386       .  S
Zr463       O472   2.393       .  S
Zr463       O473   2.430       .  S
Zr463       O474   2.419       .  S
O464        H520   0.990       .  S
O464        H528   0.991       .  S
O465        C485   1.293       .  A
O466        C487   1.285       .  A
O467       Zr477   2.450       .  S
O467        C486   1.286       .  A
O468       Zr476   2.419       .  S
O468        C487   1.275       .  A
O469        C486   1.286       .  A
O470       Zr478   2.397       .  S
O470        C485   1.276       .  A
O471       Zr476   2.401       .  S
O471       Zr478   2.387       .  S
O472       Zr477   2.395       .  S
O472       Zr478   2.376       .  S
O472        H507   0.966       .  S
O473       Zr476   2.396       .  S
O473       Zr493   2.377       .  S
O473        H510   0.961       .  S
O474       Zr477   2.391       .  S
O474       Zr493   2.394       .  S
Zr475       O500   2.437       .  S
Zr475       O494   2.452       .  S
Zr475       O502   2.449       .  S
Zr475       O490   2.445       .  S
Zr475       O481   2.407       .  S
Zr475       O482   2.416       .  S
Zr475       O483   2.375       .  S
Zr475       O484   2.395       .  S
Zr476       O495   2.436       .  S
Zr476       O488   2.432       .  S
Zr476       O489   2.417       .  S
Zr476       O482   2.399       .  S
Zr476       O483   2.391       .  S
Zr477       O479   2.436       .  S
Zr477       O501   2.438       .  S
Zr477       O503   2.440       .  S
Zr477       O481   2.394       .  S
Zr477       O484   2.397       .  S
Zr478       O504   2.436       .  S
Zr478       O505   2.435       .  S
Zr478       O480   2.437       .  S
Zr478       O481   2.386       .  S
Zr478       O482   2.376       .  S
O479        H516   0.990       .  S
O480        H511   0.990       .  S
O480        H525   0.990       .  S
O482        H508   0.963       .  S
O483       Zr493   2.386       .  S
O484       Zr493   2.379       .  S
O484        H509   0.956       .  S
C485       C3041   1.490       .  S
C486       C3108   1.498       .  S
C487       C2985   1.505       .  S
O488        H524   0.990       .  S
O489        C491   1.280       .  A
O490        C491   1.286       .  A
C491       C3349   1.481       .  S
O492       Zr493   2.441       .  S
O492        H521   0.990       .  S
Zr493       O496   2.439       .  S
Zr493       O497   2.443       .  S
Zr493       O498   2.400       .  S
O494        C499   1.285       .  A
O495        H512   0.990       .  S
O495        H527   0.990       .  S
O496        H513   0.990       .  S
O497        H517   0.990       .  S
O497        H526   0.988       .  S
O498        C499   1.279       .  A
C499       C3055   1.486   1_556  S
O500        H519   0.990       .  S
O500        H523   0.990       .  S
O501        H515   0.990       .  S
O501        H522   0.990       .  S
O502        C506   1.286       .  A
O503        C506   1.289       .  A
O504        H514   0.990       .  S
O505        H518   0.990       .  S
C506       C2996   1.500       .  S
Zr529       O530   2.442       .  S
Zr529       O531   2.460       .  S
Zr529       O532   2.468       .  S
Zr529       O535   2.464       .  S
Zr529       O537   2.393       .  S
Zr529       O538   2.383       .  S
Zr529       O539   2.419       .  S
Zr529       O540   2.406       .  S
O530        H586   0.990       .  S
O530        H594   0.990       .  S
O531        C551   1.287       .  A
O532        C553   1.292       .  A
O533       Zr543   2.414       .  S
O533        C552   1.280       .  A
O534       Zr542   2.416       .  S
O534        C553   1.281       .  A
O535        C552   1.291       .  A
O536       Zr544   2.399       .  S
O536        C551   1.279       .  A
O537       Zr542   2.405       .  S
O537       Zr544   2.369       .  S
O538       Zr543   2.389       .  S
O538       Zr544   2.386       .  S
O538        H573   0.968       .  S
O539       Zr542   2.417       .  S
O539       Zr559   2.384       .  S
O539        H576   0.964       .  S
O540       Zr543   2.387       .  S
O540       Zr559   2.386       .  S
Zr541       O566   2.443       .  S
Zr541       O560   2.468       .  S
Zr541       O568   2.477       .  S
Zr541       O556   2.434       .  S
Zr541       O547   2.390       .  S
Zr541       O548   2.426       .  S
Zr541       O549   2.378       .  S
Zr541       O550   2.393       .  S
Zr542       O561   2.436       .  S
Zr542       O554   2.435       .  S
Zr542       O555   2.451       .  S
Zr542       O548   2.388       .  S
Zr542       O549   2.389       .  S
Zr543       O545   2.436       .  S
Zr543       O567   2.437       .  S
Zr543       O569   2.412       .  S
Zr543       O547   2.372       .  S
Zr543       O550   2.396       .  S
Zr544       O570   2.434       .  S
Zr544       O571   2.436       .  S
Zr544       O546   2.439       .  S
Zr544       O547   2.373       .  S
Zr544       O548   2.396       .  S
O545        H582   0.990       .  S
O546        H577   0.990       .  S
O546        H591   0.990       .  S
O548        H574   0.963       .  S
O549       Zr559   2.385       .  S
O550       Zr559   2.390       .  S
O550        H575   0.963       .  S
C551       C2954   1.490       .  S
C552       C3027   1.489       .  S
C553       C2926   1.486       .  S
O554        H590   0.990       .  S
O555        C557   1.289       .  A
O556        C557   1.283       .  A
C557       C2968   1.498       .  S
O558       Zr559   2.438       .  S
O558        H587   0.991       .  S
Zr559       O562   2.438       .  S
Zr559       O563   2.439       .  S
Zr559       O564   2.389       .  S
O560        C565   1.290       .  A
O561        H578   0.990       .  S
O561        H593   0.990       .  S
O562        H579   0.990       .  S
O563        H583   0.990       .  S
O563        H592   0.990       .  S
O564        C565   1.275       .  A
C565       C2943   1.482       .  S
O566        H585   0.990       .  S
O566        H589   0.991       .  S
O567        H581   0.990       .  S
O567        H588   0.990       .  S
O568        C572   1.288       .  A
O569        C572   1.281       .  A
O570        H580   0.990       .  S
O571        H584   0.990       .  S
C572       C2912   1.472       .  S
Zr595       O596   2.440       .  S
Zr595       O597   2.480       .  S
Zr595       O598   2.476       .  S
Zr595       O601   2.468       .  S
Zr595       O603   2.390       .  S
Zr595       O604   2.384       .  S
Zr595       O605   2.424       .  S
Zr595       O606   2.402       .  S
O596        H652   0.990       .  S
O596        H660   0.990       .  S
O597        C617   1.293       .  A
O598        C619   1.291       .  A
O599       Zr609   2.424       .  S
O599        C618   1.282       .  A
O600       Zr608   2.419       .  S
O600        C619   1.284       .  A
O601        C618   1.292       .  A
O602       Zr610   2.391       .  S
O602        C617   1.274       .  A
O603       Zr608   2.403       .  S
O603       Zr610   2.380       .  S
O604       Zr609   2.390       .  S
O604       Zr610   2.391       .  S
O604        H639   0.966       .  S
O605       Zr608   2.407       .  S
O605       Zr625   2.385   1_556  S
O605        H642   0.965       .  S
O606       Zr609   2.376       .  S
O606       Zr625   2.380   1_556  S
Zr607       O632   2.441       .  S
Zr607       O626   2.461       .  S
Zr607       O634   2.476   1_554  S
Zr607       O622   2.445       .  S
Zr607       O613   2.387   1_554  S
Zr607       O614   2.421   1_554  S
Zr607       O615   2.377       .  S
Zr607       O616   2.395       .  S
Zr608       O627   2.437   1_556  S
Zr608       O620   2.434       .  S
Zr608       O621   2.442   1_556  S
Zr608       O614   2.397       .  S
Zr608       O615   2.389   1_556  S
Zr609       O611   2.437       .  S
Zr609       O633   2.439       .  S
Zr609       O635   2.400       .  S
Zr609       O613   2.377       .  S
Zr609       O616   2.399   1_556  S
Zr610       O636   2.435       .  S
Zr610       O637   2.438       .  S
Zr610       O612   2.439       .  S
Zr610       O613   2.374       .  S
Zr610       O614   2.389       .  S
O611        H648   0.990       .  S
O612        H643   0.990       .  S
O612        H657   0.990       .  S
O614        H640   0.964       .  S
O615       Zr625   2.381       .  S
O616       Zr625   2.386       .  S
O616        H641   0.968       .  S
C617       C2940   1.488       .  S
C618       C2999   1.486       .  S
C619       C2884   1.489       .  S
O620        H656   0.990       .  S
O621        C623   1.285       .  A
O622        C623   1.288       .  A
C623       C2898   1.495       .  S
O624       Zr625   2.439       .  S
O624        H653   0.990       .  S
Zr625       O628   2.437       .  S
Zr625       O629   2.439       .  S
Zr625       O630   2.392       .  S
O626        C631   1.287       .  A
O627        H644   0.990       .  S
O627        H659   0.990       .  S
O628        H645   0.990       .  S
O629        H649   0.990       .  S
O629        H658   0.990       .  S
O630        C631   1.277       .  A
C631       C2957   1.491       .  S
O632        H651   0.990       .  S
O632        H655   0.989       .  S
O633        H647   0.990       .  S
O633        H654   0.990       .  S
O634        C638   1.291       .  A
O635        C638   1.280       .  A
O636        H646   0.990       .  S
O637        H650   0.990       .  S
C638       C2870   1.471       .  S
Zr661       O662   2.441       .  S
Zr661       O663   2.457       .  S
Zr661       O664   2.458       .  S
Zr661       O667   2.469       .  S
Zr661       O669   2.391       .  S
Zr661       O670   2.383       .  S
Zr661       O671   2.416       .  S
Zr661       O672   2.397       .  S
O662        H718   0.990       .  S
O662        H726   0.991       .  S
O663        C683   1.290       .  A
O664        C685   1.289       .  A
O665       Zr675   2.406       .  S
O665        C684   1.282       .  A
O666       Zr674   2.413       .  S
O666        C685   1.281       .  A
O667        C684   1.290       .  A
O668       Zr676   2.393       .  S
O668        C683   1.274       .  A
O669       Zr674   2.403       .  S
O669       Zr676   2.375       .  S
O670       Zr675   2.383       .  S
O670       Zr676   2.389       .  S
O670        H705   0.964       .  S
O671       Zr674   2.410       .  S
O671       Zr691   2.389       .  S
O671        H708   0.966       .  S
O672       Zr675   2.376       .  S
O672       Zr691   2.377       .  S
Zr673       O698   2.442       .  S
Zr673       O692   2.476       .  S
Zr673       O700   2.483       .  S
Zr673       O688   2.436       .  S
Zr673       O679   2.390       .  S
Zr673       O680   2.425       .  S
Zr673       O681   2.380       .  S
Zr673       O682   2.390       .  S
Zr674       O693   2.436       .  S
Zr674       O686   2.434       .  S
Zr674       O687   2.447       .  S
Zr674       O680   2.387       .  S
Zr674       O681   2.389       .  S
Zr675       O677   2.436       .  S
Zr675       O699   2.438       .  S
Zr675       O701   2.406       .  S
Zr675       O679   2.373       .  S
Zr675       O682   2.397       .  S
Zr676       O702   2.428       .  S
Zr676       O703   2.436       .  S
Zr676       O678   2.436       .  S
Zr676       O679   2.373       .  S
Zr676       O680   2.386       .  S
O677        H714   0.990       .  S
O678        H709   0.990       .  S
O678        H723   0.990       .  S
O680        H706   0.962       .  S
O681       Zr691   2.384       .  S
O682       Zr691   2.395       .  S
O682        H707   0.966       .  S
C683       C2856   1.488       .  S
C684       C2828   1.494       .  S
C685       C2814   1.483       .  S
O686        H722   0.990       .  S
O687        C689   1.288       .  A
O688        C689   1.284       .  A
C689       C2901   1.481       .  S
O690       Zr691   2.439       .  S
O690        H719   0.990       .  S
Zr691       O694   2.437       .  S
Zr691       O695   2.441       .  S
Zr691       O696   2.391       .  S
O692        C697   1.293       .  A
O693        H710   0.990       .  S
O693        H725   0.990       .  S
O694        H711   0.990       .  S
O695        H715   0.990       .  S
O695        H724   0.990       .  S
O696        C697   1.275       .  A
C697       C2842   1.492   1_554  S
O698        H717   0.990       .  S
O698        H721   0.990       .  S
O699        H713   0.990       .  S
O699        H720   0.989       .  S
O700        C704   1.292       .  A
O701        C704   1.279       .  A
O702        H712   0.990       .  S
O703        H716   0.990       .  S
C704       C2803   1.469       .  S
Zr727       O728   2.443       .  S
Zr727       O729   2.476       .  S
Zr727       O730   2.462       .  S
Zr727       O733   2.453       .  S
Zr727       O735   2.388       .  S
Zr727       O736   2.384       .  S
Zr727       O737   2.419       .  S
Zr727       O738   2.405       .  S
O728        H784   0.990       .  S
O728        H792   0.991       .  S
O729        C749   1.293       .  A
O730        C751   1.289       .  A
O731       Zr741   2.411       .  S
O731        C750   1.283       .  A
O732       Zr740   2.410       .  S
O732        C751   1.280       .  A
O733        C750   1.287       .  A
O734       Zr742   2.407       .  S
O734        C749   1.277       .  A
O735       Zr740   2.402       .  S
O735       Zr742   2.381       .  S
O736       Zr741   2.385       .  S
O736       Zr742   2.384       .  S
O736        H771   0.966       .  S
O737       Zr740   2.411       .  S
O737       Zr757   2.387       .  S
O737        H774   0.967       .  S
O738       Zr741   2.378       .  S
O738       Zr757   2.375       .  S
Zr739       O764   2.442       .  S
Zr739       O758   2.461       .  S
Zr739       O766   2.492       .  S
Zr739       O754   2.439       .  S
Zr739       O745   2.391       .  S
Zr739       O746   2.421       .  S
Zr739       O747   2.382       .  S
Zr739       O748   2.391       .  S
Zr740       O759   2.437       .  S
Zr740       O752   2.435       .  S
Zr740       O753   2.441       .  S
Zr740       O746   2.392       .  S
Zr740       O747   2.385       .  S
Zr741       O743   2.436       .  S
Zr741       O765   2.436       .  S
Zr741       O767   2.421       .  S
Zr741       O745   2.381       .  S
Zr741       O748   2.386       .  S
Zr742       O768   2.437       .  S
Zr742       O769   2.435       .  S
Zr742       O744   2.437       .  S
Zr742       O745   2.380       .  S
Zr742       O746   2.401       .  S
O743        H780   0.990       .  S
O744        H775   0.990       .  S
O744        H789   0.990       .  S
O746        H772   0.965       .  S
O747       Zr757   2.380       .  S
O748       Zr757   2.388       .  S
O748        H773   0.963       .  S
C749       C2845   1.495       .  S
C750       C2786   1.475       .  S
C751       C2772   1.478       .  S
O752        H788   0.990       .  S
O753        C755   1.285       .  A
O754        C755   1.287       .  A
C755       C2971   1.487       .  S
O756       Zr757   2.436       .  S
O756        H785   0.990       .  S
Zr757       O760   2.438       .  S
Zr757       O761   2.444       .  S
Zr757       O762   2.383       .  S
O758        C763   1.291       .  A
O759        H776   0.990       .  S
O759        H791   0.990       .  S
O760        H777   0.990       .  S
O761        H781   0.990       .  S
O761        H790   0.989       .  S
O762        C763   1.273       .  A
C763       C2859   1.485       .  S
O764        H783   0.990       .  S
O764        H787   0.990       .  S
O765        H779   0.989       .  S
O765        H786   0.990       .  S
O766        C770   1.291       .  A
O767        C770   1.283       .  A
O768        H778   0.990       .  S
O769        H782   0.990       .  S
C770       C2761   1.499       .  S
Zr793       O794   2.443       .  S
Zr793       O795   2.456       .  S
Zr793       O796   2.463       .  S
Zr793       O799   2.422       .  S
Zr793       O801   2.393       .  S
Zr793       O802   2.386       .  S
Zr793       O803   2.432       .  S
Zr793       O804   2.412       .  S
O794        H850   0.990       .  S
O794        H858   0.990       .  S
O795        C815   1.286       .  A
O796        C817   1.281       .  A
O797       Zr807   2.446       .  S
O797        C816   1.285       .  A
O798       Zr806   2.426       .  S
O798        C817   1.277       .  A
O799        C816   1.285       .  A
O800       Zr808   2.399       .  S
O800        C815   1.279       .  A
O801       Zr806   2.410       .  S
O801       Zr808   2.381       .  S
O802       Zr807   2.386       .  S
O802       Zr808   2.370       .  S
O802        H837   0.965       .  S
O803       Zr806   2.400       .  S
O803       Zr823   2.378       .  S
O803        H840   0.962       .  S
O804       Zr807   2.391       .  S
O804       Zr823   2.392       .  S
Zr805       O830   2.438   1_554  S
Zr805       O824   2.473   1_554  S
Zr805       O832   2.461       .  S
Zr805       O820   2.447       .  S
Zr805       O811   2.411       .  S
Zr805       O812   2.418       .  S
Zr805       O813   2.381       .  S
Zr805       O814   2.392       .  S
Zr806       O825   2.438       .  S
Zr806       O818   2.436       .  S
Zr806       O819   2.436       .  S
Zr806       O812   2.397       .  S
Zr806       O813   2.389       .  S
Zr807       O809   2.434       .  S
Zr807       O831   2.438       .  S
Zr807       O833   2.422       .  S
Zr807       O811   2.397       .  S
Zr807       O814   2.398       .  S
Zr808       O834   2.435       .  S
Zr808       O835   2.436       .  S
Zr808       O810   2.439       .  S
Zr808       O811   2.395       .  S
Zr808       O812   2.370       .  S
O809        H846   0.990       .  S
O810        H841   0.990       .  S
O810        H855   0.990       .  S
O812        H838   0.965       .  S
O813       Zr823   2.392       .  S
O814       Zr823   2.384       .  S
O814        H839   0.966   1_554  S
C815       C2730   1.482       .  S
C816       C2747   1.493       .  S
C817       C2677   1.498       .  S
O818        H854   0.990       .  S
O819        C821   1.286       .  A
O820        C821   1.285       .  A
C821       C2705   1.480   1_554  S
O822       Zr823   2.441       .  S
O822        H851   0.990   1_554  S
Zr823       O826   2.440   1_554  S
Zr823       O827   2.442   1_554  S
Zr823       O828   2.392   1_554  S
O824        C829   1.291       .  A
O825        H842   0.990       .  S
O825        H857   0.989       .  S
O826        H843   0.990       .  S
O827        H847   0.990       .  S
O827        H856   0.990       .  S
O828        C829   1.275       .  A
C829       C2716   1.484       .  S
O830        H849   0.990       .  S
O830        H853   0.990       .  S
O831        H845   0.990       .  S
O831        H852   0.990       .  S
O832        C836   1.286       .  A
O833        C836   1.285       .  A
O834        H844   0.990       .  S
O835        H848   0.990       .  S
C836       C2691   1.500       .  S
Zr859       O860   2.439       .  S
Zr859       O861   2.467       .  S
Zr859       O862   2.475       .  S
Zr859       O865   2.447       .  S
Zr859       O867   2.385       .  S
Zr859       O868   2.391       .  S
Zr859       O869   2.425       .  S
Zr859       O870   2.411       .  S
O860        H916   0.990       .  S
O860        H924   0.990       .  S
O861        C881   1.291       .  A
O862        C883   1.288       .  A
O863       Zr873   2.440       .  S
O863        C882   1.287       .  A
O864       Zr872   2.413       .  S
O864        C883   1.274       .  A
O865        C882   1.287       .  A
O866       Zr874   2.400       .  S
O866        C881   1.276       .  A
O867       Zr872   2.406       .  S
O867       Zr874   2.385       .  S
O868       Zr873   2.391       .  S
O868       Zr874   2.377       .  S
O868        H903   0.965       .  S
O869       Zr872   2.402       .  S
O869       Zr889   2.386       .  S
O869        H906   0.966       .  S
O870       Zr873   2.385       .  S
O870       Zr889   2.386       .  S
Zr871       O896   2.435       .  S
Zr871       O890   2.450       .  S
Zr871       O898   2.448       .  S
Zr871       O886   2.453       .  S
Zr871       O877   2.406       .  S
Zr871       O878   2.416       .  S
Zr871       O879   2.376       .  S
Zr871       O880   2.397       .  S
Zr872       O891   2.436       .  S
Zr872       O884   2.429       .  S
Zr872       O885   2.427       .  S
Zr872       O878   2.398       .  S
Zr872       O879   2.386       .  S
Zr873       O875   2.437       .  S
Zr873       O897   2.439       .  S
Zr873       O899   2.425       .  S
Zr873       O877   2.389       .  S
Zr873       O880   2.399       .  S
Zr874       O900   2.437       .  S
Zr874       O901   2.435       .  S
Zr874       O876   2.436       .  S
Zr874       O877   2.387       .  S
Zr874       O878   2.375       .  S
O875        H912   0.990       .  S
O876        H907   0.990       .  S
O876        H921   0.990       .  S
O878        H904   0.963       .  S
O879       Zr889   2.389       .  S
O880       Zr889   2.379       .  S
O880        H905   0.969       .  S
C881       C2719   1.483       .  S
C882       C2660   1.489       .  S
C883       C2618   1.491       .  S
O884        H920   0.990       .  S
O885        C887   1.282       .  A
O886        C887   1.288       .  A
C887       C2646   1.480       .  S
O888       Zr889   2.437       .  S
O888        H917   0.990       .  S
Zr889       O892   2.437       .  S
Zr889       O893   2.440       .  S
Zr889       O894   2.402       .  S
O890        C895   1.285       .  A
O891        H908   0.990       .  S
O891        H923   0.990       .  S
O892        H909   0.990       .  S
O893        H913   0.990       .  S
O893        H922   0.990       .  S
O894        C895   1.278       .  A
C895       C2733   1.484       .  S
O896        H915   0.990       .  S
O896        H919   0.989       .  S
O897        H911   0.990       .  S
O897        H918   0.990       .  S
O898        C902   1.286       .  A
O899        C902   1.286       .  A
O900        H910   0.990       .  S
O901        H914   0.990       .  S
C902       C2635   1.494       .  S
Zr925       O926   2.440       .  S
Zr925       O927   2.461       .  S
Zr925       O928   2.471       .  S
Zr925       O931   2.424       .  S
Zr925       O933   2.393       .  S
Zr925       O934   2.393       .  S
Zr925       O935   2.431       .  S
Zr925       O936   2.420       .  S
O926        H982   0.990       .  S
O926        H990   0.990       .  S
O927        C947   1.287       .  A
O928        C949   1.283       .  A
O929       Zr939   2.444       .  S
O929        C948   1.287       .  A
O930       Zr938   2.424       .  S
O930        C949   1.277       .  A
O931        C948   1.283       .  A
O932       Zr940   2.404       .  S
O932        C947   1.280       .  A
O933       Zr938   2.407       .  S
O933       Zr940   2.386       .  S
O934       Zr939   2.382       .  S
O934       Zr940   2.372       .  S
O934        H969   0.965       .  S
O935       Zr938   2.394       .  S
O935       Zr955   2.376       .  S
O935        H972   0.952       .  S
O936       Zr939   2.390       .  S
O936       Zr955   2.397       .  S
Zr937       O962   2.441       .  S
Zr937       O956   2.474       .  S
Zr937       O964   2.446       .  S
Zr937       O952   2.465       .  S
Zr937       O943   2.412       .  S
Zr937       O944   2.419       .  S
Zr937       O945   2.378       .  S
Zr937       O946   2.390       .  S
Zr938       O957   2.437       .  S
Zr938       O950   2.436       .  S
Zr938       O951   2.423       .  S
Zr938       O944   2.398       .  S
Zr938       O945   2.390       .  S
Zr939       O941   2.435       .  S
Zr939       O963   2.437       .  S
Zr939       O965   2.419       .  S
Zr939       O943   2.398       .  S
Zr939       O946   2.395       .  S
Zr940       O966   2.436       .  S
Zr940       O967   2.437       .  S
Zr940       O942   2.439       .  S
Zr940       O943   2.394       .  S
Zr940       O944   2.372       .  S
O941        H978   0.990       .  S
O942        H973   0.990       .  S
O942        H987   0.990       .  S
O944        H970   0.964       .  S
O945       Zr955   2.393       .  S
O946       Zr955   2.369       .  S
O946        H971   0.974       .  S
C947       C2604   1.484       .  S
C948       C2744   1.494       .  S
C949       C2576   1.500       .  S
O950        H986   0.990       .  S
O951        C953   1.284       .  A
O952        C953   1.288       .  A
C953       C2929   1.485       .  S
O954       Zr955   2.437       .  S
O954        H983   0.990       .  S
Zr955       O958   2.437       .  S
Zr955       O959   2.442       .  S
Zr955       O960   2.402       .  S
O956        C961   1.292       .  A
O957        H974   0.990       .  S
O957        H989   0.989       .  S
O958        H975   0.990       .  S
O959        H979   0.989       .  S
O959        H988   0.990       .  S
O960        C961   1.277       .  A
C961       C2590   1.491       .  S
O962        H981   0.990       .  S
O962        H985   0.990       .  S
O963        H977   0.990       .  S
O963        H984   0.990       .  S
O964        C968   1.289       .  A
O965        C968   1.282       .  A
O966        H976   0.990       .  S
O967        H980   0.990       .  S
C968       C3391   1.493       .  S
Zr991       O992   2.443       .  S
Zr991       O993   2.478       .  S
Zr991       O994   2.479       .  S
Zr991       O997   2.434       .  S
Zr991       O999   2.391       .  S
Zr991      O1000   2.388       .  S
Zr991      O1001   2.431       .  S
Zr991      O1002   2.416       .  S
O992       H1048   0.990       .  S
O992       H1056   0.991       .  S
O993       C1013   1.293       .  A
O994       C1015   1.285       .  A
O995      Zr1005   2.444       .  S
O995       C1014   1.286       .  A
O996      Zr1004   2.419       .  S
O996       C1015   1.276       .  A
O997       C1014   1.287       .  A
O998      Zr1006   2.400       .  S
O998       C1013   1.276       .  A
O999      Zr1004   2.406       .  S
O999      Zr1006   2.386       .  S
O1000     Zr1005   2.388       .  S
O1000     Zr1006   2.377       .  S
O1000      H1035   0.964       .  S
O1001     Zr1004   2.399       .  S
O1001     Zr1021   2.380       .  S
O1001      H1038   0.961       .  S
O1002     Zr1005   2.389       .  S
O1002     Zr1021   2.393       .  S
Zr1003     O1028   2.438       .  S
Zr1003     O1022   2.462       .  S
Zr1003     O1030   2.448       .  S
Zr1003     O1018   2.455       .  S
Zr1003     O1009   2.408       .  S
Zr1003     O1010   2.415       .  S
Zr1003     O1011   2.372       .  S
Zr1003     O1012   2.401       .  S
Zr1004     O1023   2.435       .  S
Zr1004     O1016   2.433       .  S
Zr1004     O1017   2.430       .  S
Zr1004     O1010   2.398       .  S
Zr1004     O1011   2.385       .  S
Zr1005     O1007   2.435       .  S
Zr1005     O1029   2.439       .  S
Zr1005     O1031   2.420       .  S
Zr1005     O1009   2.389       .  S
Zr1005     O1012   2.403       .  S
Zr1006     O1032   2.436       .  S
Zr1006     O1033   2.435       .  S
Zr1006     O1008   2.437       .  S
Zr1006     O1009   2.382       .  S
Zr1006     O1010   2.382       .  S
O1007      H1044   0.990       .  S
O1008      H1039   0.990       .  S
O1008      H1053   0.990       .  S
O1010      H1036   0.961       .  S
O1011     Zr1021   2.387       .  S
O1012     Zr1021   2.373       .  S
O1012      H1037   0.955       .  S
C1013      C2593   1.490       .  S
C1014      C2663   1.498       .  S
C1015      C2562   1.501       .  S
O1016      H1052   0.990       .  S
O1017      C1019   1.283       .  A
O1018      C1019   1.288       .  A
C1019      C2887   1.487       .  S
O1020     Zr1021   2.437       .  S
O1020      H1049   0.990       .  S
Zr1021     O1024   2.436       .  S
Zr1021     O1025   2.439       .  S
Zr1021     O1026   2.401       .  S
O1022      C1027   1.287       .  A
O1023      H1040   0.990       .  S
O1023      H1055   0.989       .  S
O1024      H1041   0.990       .  S
O1025      H1045   0.990       .  S
O1025      H1054   0.990       .  S
O1026      C1027   1.279       .  A
C1027      C2607   1.487   1_556  S
O1028      H1047   0.990       .  S
O1028      H1051   0.989       .  S
O1029      H1043   0.990       .  S
O1029      H1050   0.990       .  S
O1030      C1034   1.286       .  A
O1031      C1034   1.285       .  A
O1032      H1042   0.990       .  S
O1033      H1046   0.991       .  S
C1034      C3335   1.482       .  S
Zr1057     O1058   2.441   1_554  S
Zr1057     O1059   2.463   1_554  S
Zr1057     O1060   2.475       .  S
Zr1057     O1063   2.432   1_554  S
Zr1057     O1065   2.386       .  S
Zr1057     O1066   2.388   1_554  S
Zr1057     O1067   2.428       .  S
Zr1057     O1068   2.415       .  S
O1058      H1114   0.990       .  S
O1058      H1122   0.990       .  S
O1059      C1079   1.288       .  A
O1060      C1081   1.288       .  A
O1061     Zr1071   2.440       .  S
O1061      C1080   1.284   1_554  A
O1062     Zr1070   2.410       .  S
O1062      C1081   1.273       .  A
O1063      C1080   1.287       .  A
O1064     Zr1072   2.396       .  S
O1064      C1079   1.278       .  A
O1065     Zr1070   2.404       .  S
O1065     Zr1072   2.381   1_554  S
O1066     Zr1071   2.386   1_556  S
O1066     Zr1072   2.372       .  S
O1066      H1101   0.967       .  S
O1067     Zr1070   2.397       .  S
O1067     Zr1087   2.381       .  S
O1067      H1104   0.967       .  S
O1068     Zr1071   2.387       .  S
O1068     Zr1087   2.393       .  S
Zr1069     O1094   2.440       .  S
Zr1069     O1088   2.458       .  S
Zr1069     O1096   2.461       .  S
Zr1069     O1084   2.449       .  S
Zr1069     O1075   2.409       .  S
Zr1069     O1076   2.415       .  S
Zr1069     O1077   2.378       .  S
Zr1069     O1078   2.400       .  S
Zr1070     O1089   2.437       .  S
Zr1070     O1082   2.430       .  S
Zr1070     O1083   2.416       .  S
Zr1070     O1076   2.390       .  S
Zr1070     O1077   2.379       .  S
Zr1071     O1073   2.435       .  S
Zr1071     O1095   2.439   1_554  S
Zr1071     O1097   2.413       .  S
Zr1071     O1075   2.395       .  S
Zr1071     O1078   2.401       .  S
Zr1072     O1098   2.434       .  S
Zr1072     O1099   2.436   1_556  S
Zr1072     O1074   2.439       .  S
Zr1072     O1075   2.389   1_556  S
Zr1072     O1076   2.365   1_556  S
O1073      H1110   0.990       .  S
O1074      H1105   0.990       .  S
O1074      H1119   0.990       .  S
O1076      H1102   0.961       .  S
O1077     Zr1087   2.386       .  S
O1078     Zr1087   2.382       .  S
O1078      H1103   0.976       .  S
C1079      C2523   1.486       .  S
C1080      C2551   1.495       .  S
C1081      C2674   1.493       .  S
O1082      H1118   0.990       .  S
O1083      C1085   1.283       .  A
O1084      C1085   1.286       .  A
C1085      C2509   1.481       .  S
O1086     Zr1087   2.438       .  S
O1086      H1115   0.990       .  S
Zr1087     O1090   2.438       .  S
Zr1087     O1091   2.441       .  S
Zr1087     O1092   2.398       .  S
O1088      C1093   1.286       .  A
O1089      H1106   0.990       .  S
O1089      H1121   0.989       .  S
O1090      H1107   0.990       .  S
O1091      H1111   0.990       .  S
O1091      H1120   0.990       .  S
O1092      C1093   1.278       .  A
C1093      C2537   1.483       .  S
O1094      H1113   0.990       .  S
O1094      H1117   0.989       .  S
O1095      H1109   0.990   1_556  S
O1095      H1116   0.990       .  S
O1096      C1100   1.287       .  A
O1097      C1100   1.283       .  A
O1098      H1108   0.990       .  S
O1099      H1112   0.991       .  S
C1100      C2492   1.488       .  S
Zr1123     O1124   2.444       .  S
Zr1123     O1125   2.460       .  S
Zr1123     O1126   2.474       .  S
Zr1123     O1129   2.419       .  S
Zr1123     O1131   2.393       .  S
Zr1123     O1132   2.389       .  S
Zr1123     O1133   2.428       .  S
Zr1123     O1134   2.417       .  S
O1124      H1180   0.990       .  S
O1124      H1188   0.990       .  S
O1125      C1145   1.288       .  A
O1126      C1147   1.283       .  A
O1127     Zr1137   2.461       .  S
O1127      C1146   1.287       .  A
O1128     Zr1136   2.418       .  S
O1128      C1147   1.275       .  A
O1129      C1146   1.284       .  A
O1130     Zr1138   2.399       .  S
O1130      C1145   1.278       .  A
O1131     Zr1136   2.412       .  S
O1131     Zr1138   2.386       .  S
O1132     Zr1137   2.386       .  S
O1132     Zr1138   2.368       .  S
O1132      H1167   0.966       .  S
O1133     Zr1136   2.399       .  S
O1133     Zr1153   2.371       .  S
O1133      H1170   0.961       .  S
O1134     Zr1137   2.388       .  S
O1134     Zr1153   2.394       .  S
Zr1135     O1160   2.437       .  S
Zr1135     O1154   2.466       .  S
Zr1135     O1162   2.451       .  S
Zr1135     O1150   2.458       .  S
Zr1135     O1141   2.412       .  S
Zr1135     O1142   2.416       .  S
Zr1135     O1143   2.376       .  S
Zr1135     O1144   2.405       .  S
Zr1136     O1155   2.439       .  S
Zr1136     O1148   2.435       .  S
Zr1136     O1149   2.431       .  S
Zr1136     O1142   2.392       .  S
Zr1136     O1143   2.386       .  S
Zr1137     O1139   2.435       .  S
Zr1137     O1161   2.439       .  S
Zr1137     O1163   2.427       .  S
Zr1137     O1141   2.399       .  S
Zr1137     O1144   2.401       .  S
Zr1138     O1164   2.435       .  S
Zr1138     O1165   2.436       .  S
Zr1138     O1140   2.438       .  S
Zr1138     O1141   2.387       .  S
Zr1138     O1142   2.368       .  S
O1139      H1176   0.990       .  S
O1140      H1171   0.990       .  S
O1140      H1185   0.990       .  S
O1142      H1168   0.963       .  S
O1143     Zr1153   2.391       .  S
O1144     Zr1153   2.381       .  S
O1144      H1169   0.974       .  S
C1145      C2534   1.478       .  S
C1146      C2478   1.501       .  S
C1147      C2621   1.501       .  S
O1148      H1184   0.990       .  S
O1149      C1151   1.286       .  A
O1150      C1151   1.287       .  A
C1151      C2464   1.490       .  S
O1152     Zr1153   2.437       .  S
O1152      H1181   0.990       .  S
Zr1153     O1156   2.438       .  S
Zr1153     O1157   2.440       .  S
Zr1153     O1158   2.392       .  S
O1154      C1159   1.288       .  A
O1155      H1172   0.990       .  S
O1155      H1187   0.990       .  S
O1156      H1173   0.990       .  S
O1157      H1177   0.990       .  S
O1157      H1186   0.990       .  S
O1158      C1159   1.277       .  A
C1159      C2520   1.488       .  S
O1160      H1179   0.990       .  S
O1160      H1183   0.990       .  S
O1161      H1175   0.990       .  S
O1161      H1182   0.990       .  S
O1162      C1166   1.285       .  A
O1163      C1166   1.286       .  A
O1164      H1174   0.990       .  S
O1165      H1178   0.990       .  S
C1166      C2450   1.493       .  S
Zr1189     O1190   2.439       .  S
Zr1189     O1191   2.462       .  S
Zr1189     O1192   2.478       .  S
Zr1189     O1195   2.435       .  S
Zr1189     O1197   2.385       .  S
Zr1189     O1198   2.394       .  S
Zr1189     O1199   2.423       .  S
Zr1189     O1200   2.418       .  S
O1190      H1246   0.990       .  S
O1190      H1254   0.990       .  S
O1191      C1211   1.288       .  A
O1192      C1213   1.290       .  A
O1193     Zr1203   2.444       .  S
O1193      C1212   1.286       .  A
O1194     Zr1202   2.417       .  S
O1194      C1213   1.275       .  A
O1195      C1212   1.285       .  A
O1196     Zr1204   2.393       .  S
O1196      C1211   1.278       .  A
O1197     Zr1202   2.402       .  S
O1197     Zr1204   2.382       .  S
O1198     Zr1203   2.392       .  S
O1198     Zr1204   2.373       .  S
O1198      H1233   0.964       .  S
O1199     Zr1202   2.398       .  S
O1199     Zr1219   2.374       .  S
O1199      H1236   0.965       .  S
O1200     Zr1203   2.391       .  S
O1200     Zr1219   2.393       .  S
Zr1201     O1226   2.438       .  S
Zr1201     O1220   2.467       .  S
Zr1201     O1228   2.444       .  S
Zr1201     O1216   2.449       .  S
Zr1201     O1207   2.405       .  S
Zr1201     O1208   2.418       .  S
Zr1201     O1209   2.381       .  S
Zr1201     O1210   2.396       .  S
Zr1202     O1221   2.434       .  S
Zr1202     O1214   2.433       .  S
Zr1202     O1215   2.424       .  S
Zr1202     O1208   2.390       .  S
Zr1202     O1209   2.395       .  S
Zr1203     O1205   2.435       .  S
Zr1203     O1227   2.439       .  S
Zr1203     O1229   2.429       .  S
Zr1203     O1207   2.385       .  S
Zr1203     O1210   2.395       .  S
Zr1204     O1230   2.436       .  S
Zr1204     O1231   2.437       .  S
Zr1204     O1206   2.438       .  S
Zr1204     O1207   2.381       .  S
Zr1204     O1208   2.374       .  S
O1205      H1242   0.990       .  S
O1206      H1237   0.990       .  S
O1206      H1251   0.990       .  S
O1208      H1234   0.965       .  S
O1209     Zr1219   2.396       .  S
O1210     Zr1219   2.377       .  S
O1210      H1235   0.963       .  S
C1211      C2422   1.488       .  S
C1212      C2481   1.485       .  S
C1213      C2579   1.494       .  S
O1214      H1250   0.990       .  S
O1215      C1217   1.284       .  A
O1216      C1217   1.284       .  A
C1217      C2817   1.479       .  S
O1218     Zr1219   2.437       .  S
O1218      H1247   0.990       .  S
Zr1219     O1222   2.435       .  S
Zr1219     O1223   2.438       .  S
Zr1219     O1224   2.389       .  S
O1220      C1225   1.289       .  A
O1221      H1238   0.990       .  S
O1221      H1253   0.990       .  S
O1222      H1239   0.990       .  S
O1223      H1243   0.990       .  S
O1223      H1252   0.990       .  S
O1224      C1225   1.275       .  A
C1225      C2436   1.479       .  S
O1226      H1245   0.990       .  S
O1226      H1249   0.990       .  S
O1227      H1241   0.990       .  S
O1227      H1248   0.990       .  S
O1228      C1232   1.284       .  A
O1229      C1232   1.287       .  A
O1230      H1240   0.990       .  S
O1231      H1244   0.990       .  S
C1232      C3265   1.492       .  S
Zr1255     O1256   2.441       .  S
Zr1255     O1257   2.458       .  S
Zr1255     O1258   2.473       .  S
Zr1255     O1261   2.439       .  S
Zr1255     O1263   2.379       .  S
Zr1255     O1264   2.394       .  S
Zr1255     O1265   2.424       .  S
Zr1255     O1266   2.413       .  S
O1256      H1312   0.990       .  S
O1256      H1320   0.990       .  S
O1257      C1277   1.289       .  A
O1258      C1279   1.288       .  A
O1259     Zr1269   2.449       .  S
O1259      C1278   1.289       .  A
O1260     Zr1268   2.410       .  S
O1260      C1279   1.274       .  A
O1261      C1278   1.286       .  A
O1262     Zr1270   2.398       .  S
O1262      C1277   1.276       .  A
O1263     Zr1268   2.398       .  S
O1263     Zr1270   2.382       .  S
O1264     Zr1269   2.394       .  S
O1264     Zr1270   2.377       .  S
O1264      H1299   0.966       .  S
O1265     Zr1268   2.398       .  S
O1265     Zr1285   2.382       .  S
O1265      H1302   0.966       .  S
O1266     Zr1269   2.389       .  S
O1266     Zr1285   2.385       .  S
Zr1267     O1292   2.440       .  S
Zr1267     O1286   2.461       .  S
Zr1267     O1294   2.443       .  S
Zr1267     O1282   2.448       .  S
Zr1267     O1273   2.413       .  S
Zr1267     O1274   2.414       .  S
Zr1267     O1275   2.377       .  S
Zr1267     O1276   2.398       .  S
Zr1268     O1287   2.435       .  S
Zr1268     O1280   2.431       .  S
Zr1268     O1281   2.424       .  S
Zr1268     O1274   2.388       .  S
Zr1268     O1275   2.385       .  S
Zr1269     O1271   2.436       .  S
Zr1269     O1293   2.438       .  S
Zr1269     O1295   2.434       .  S
Zr1269     O1273   2.393       .  S
Zr1269     O1276   2.401       .  S
Zr1270     O1296   2.436       .  S
Zr1270     O1297   2.435       .  S
Zr1270     O1272   2.436       .  S
Zr1270     O1273   2.391       .  S
Zr1270     O1274   2.369       .  S
O1271      H1308   0.990       .  S
O1272      H1303   0.990       .  S
O1272      H1317   0.990       .  S
O1274      H1300   0.962       .  S
O1275     Zr1285   2.392       .  S
O1276     Zr1285   2.382       .  S
O1276      H1301   0.970       .  S
C1277      C2439   1.479   1_556  S
C1278      C2548   1.487       .  S
C1279      C2565   1.494       .  S
O1280      H1316   0.990       .  S
O1281      C1283   1.284       .  A
O1282      C1283   1.285       .  A
C1283      C2775   1.487       .  S
O1284     Zr1285   2.442       .  S
O1284      H1313   0.990       .  S
Zr1285     O1288   2.437       .  S
Zr1285     O1289   2.444       .  S
Zr1285     O1290   2.390       .  S
O1286      C1291   1.287       .  A
O1287      H1304   0.990       .  S
O1287      H1319   0.990       .  S
O1288      H1305   0.990       .  S
O1289      H1309   0.990       .  S
O1289      H1318   0.989       .  S
O1290      C1291   1.277       .  A
C1291      C2425   1.493       .  S
O1292      H1311   0.990       .  S
O1292      H1315   0.989       .  S
O1293      H1307   0.990       .  S
O1293      H1314   0.990       .  S
O1294      C1298   1.283       .  A
O1295      C1298   1.287       .  A
O1296      H1306   0.990       .  S
O1297      H1310   0.990       .  S
C1298      C3220   1.486       .  S
Zr1321     O1322   2.440       .  S
Zr1321     O1323   2.472       .  S
Zr1321     O1324   2.466       .  S
Zr1321     O1327   2.454       .  S
Zr1321     O1329   2.391       .  S
Zr1321     O1330   2.380       .  S
Zr1321     O1331   2.424       .  S
Zr1321     O1332   2.407       .  S
O1322      H1378   0.990       .  S
O1322      H1386   0.990       .  S
O1323      C1343   1.292       .  A
O1324      C1345   1.288       .  A
O1325     Zr1335   2.418       .  S
O1325      C1344   1.281       .  A
O1326     Zr1334   2.412       .  S
O1326      C1345   1.283       .  A
O1327      C1344   1.289       .  A
O1328     Zr1336   2.400       .  S
O1328      C1343   1.276       .  A
O1329     Zr1334   2.404       .  S
O1329     Zr1336   2.378       .  S
O1330     Zr1335   2.390       .  S
O1330     Zr1336   2.392       .  S
O1330      H1365   0.966       .  S
O1331     Zr1334   2.410       .  S
O1331     Zr1351   2.388       .  S
O1331      H1368   0.963       .  S
O1332     Zr1335   2.378       .  S
O1332     Zr1351   2.387       .  S
Zr1333     O1358   2.438       .  S
Zr1333     O1352   2.453       .  S
Zr1333     O1360   2.480       .  S
Zr1333     O1348   2.445       .  S
Zr1333     O1339   2.379       .  S
Zr1333     O1340   2.418       .  S
Zr1333     O1341   2.375       .  S
Zr1333     O1342   2.398       .  S
Zr1334     O1353   2.437       .  S
Zr1334     O1346   2.433       .  S
Zr1334     O1347   2.445       .  S
Zr1334     O1340   2.394       .  S
Zr1334     O1341   2.387       .  S
Zr1335     O1337   2.436       .  S
Zr1335     O1359   2.440       .  S
Zr1335     O1361   2.403       .  S
Zr1335     O1339   2.368       .  S
Zr1335     O1342   2.399       .  S
Zr1336     O1362   2.434       .  S
Zr1336     O1363   2.435       .  S
Zr1336     O1338   2.437       .  S
Zr1336     O1339   2.367       .  S
Zr1336     O1340   2.396       .  S
O1337      H1374   0.990       .  S
O1338      H1369   0.990       .  S
O1338      H1383   0.990       .  S
O1340      H1366   0.965       .  S
O1341     Zr1351   2.381       .  S
O1342     Zr1351   2.389       .  S
O1342      H1367   0.969       .  S
C1343      C2380   1.491   1_554  S
C1344      C2495   1.483       .  S
C1345      C2366   1.488       .  S
O1346      H1382   0.990       .  S
O1347      C1349   1.285       .  A
O1348      C1349   1.288       .  A
C1349      C2411   1.500       .  S
O1350     Zr1351   2.441       .  S
O1350      H1379   0.990       .  S
Zr1351     O1354   2.441       .  S
Zr1351     O1355   2.440       .  S
Zr1351     O1356   2.404       .  S
O1352      C1357   1.286       .  A
O1353      H1370   0.990       .  S
O1353      H1385   0.990       .  S
O1354      H1371   0.990       .  S
O1355      H1375   0.990       .  S
O1355      H1384   0.990       .  S
O1356      C1357   1.279       .  A
C1357      C2394   1.483       .  S
O1358      H1377   0.990       .  S
O1358      H1381   0.988       .  S
O1359      H1373   0.989       .  S
O1359      H1380   0.990       .  S
O1360      C1364   1.291       .  A
O1361      C1364   1.281       .  A
O1362      H1372   0.990       .  S
O1363      H1376   0.990       .  S
C1364      C3251   1.475       .  S
Zr1387     O1388   2.442       .  S
Zr1387     O1389   2.454       .  S
Zr1387     O1390   2.458       .  S
Zr1387     O1393   2.445       .  S
Zr1387     O1395   2.388       .  S
Zr1387     O1396   2.384       .  S
Zr1387     O1397   2.417       .  S
Zr1387     O1398   2.404       .  S
O1388      H1444   0.990       .  S
O1388      H1452   0.990       .  S
O1389      C1409   1.285       .  A
O1390      C1411   1.289       .  A
O1391     Zr1401   2.427       .  S
O1391      C1410   1.282       .  A
O1392     Zr1400   2.399       .  S
O1392      C1411   1.277       .  A
O1393      C1410   1.287       .  A
O1394     Zr1402   2.402       .  S
O1394      C1409   1.280       .  A
O1395     Zr1400   2.403       .  S
O1395     Zr1402   2.374       .  S
O1396     Zr1401   2.388       .  S
O1396     Zr1402   2.388       .  S
O1396      H1431   0.965       .  S
O1397     Zr1400   2.409       .  S
O1397     Zr1417   2.392       .  S
O1397      H1434   0.966       .  S
O1398     Zr1401   2.380       .  S
O1398     Zr1417   2.382       .  S
Zr1399     O1424   2.440       .  S
Zr1399     O1418   2.463       .  S
Zr1399     O1426   2.475       .  S
Zr1399     O1414   2.450       .  S
Zr1399     O1405   2.383       .  S
Zr1399     O1406   2.418       .  S
Zr1399     O1407   2.377       .  S
Zr1399     O1408   2.394       .  S
Zr1400     O1419   2.437       .  S
Zr1400     O1412   2.435       .  S
Zr1400     O1413   2.428       .  S
Zr1400     O1406   2.394       .  S
Zr1400     O1407   2.391       .  S
Zr1401     O1403   2.436       .  S
Zr1401     O1425   2.438       .  S
Zr1401     O1427   2.405       .  S
Zr1401     O1405   2.372       .  S
Zr1401     O1408   2.395       .  S
Zr1402     O1428   2.436       .  S
Zr1402     O1429   2.436       .  S
Zr1402     O1404   2.437       .  S
Zr1402     O1405   2.365       .  S
Zr1402     O1406   2.397       .  S
O1403      H1440   0.990       .  S
O1404      H1435   0.990       .  S
O1404      H1449   0.990       .  S
O1406      H1432   0.966       .  S
O1407     Zr1417   2.384       .  S
O1408     Zr1417   2.388       .  S
O1408      H1433   0.973       .  S
C1409      C2397   1.484       .  S
C1410      C2453   1.479       .  S
C1411      C2338   1.475       .  S
O1412      H1448   0.990       .  S
O1413      C1415   1.282       .  A
O1414      C1415   1.289       .  A
C1415      C2355   1.496       .  S
O1416     Zr1417   2.435       .  S
O1416      H1445   0.990       .  S
Zr1417     O1420   2.434       .  S
Zr1417     O1421   2.442       .  S
Zr1417     O1422   2.392       .  S
O1418      C1423   1.290       .  A
O1419      H1436   0.990       .  S
O1419      H1451   0.990       .  S
O1420      H1437   0.990       .  S
O1421      H1441   0.990       .  S
O1421      H1450   0.990       .  S
O1422      C1423   1.275       .  A
C1423      C2383   1.485       .  S
O1424      H1443   0.991       .  S
O1424      H1447   0.990       .  S
O1425      H1439   0.990       .  S
O1425      H1446   0.990       .  S
O1426      C1430   1.291       .  A
O1427      C1430   1.282       .  A
O1428      H1438   0.990       .  S
O1429      H1442   0.990       .  S
C1430      C3209   1.475       .  S
Zr1453     O1454   2.441       .  S
Zr1453     O1455   2.475       .  S
Zr1453     O1456   2.470       .  S
Zr1453     O1459   2.464       .  S
Zr1453     O1461   2.387       .  S
Zr1453     O1462   2.383       .  S
Zr1453     O1463   2.420       .  S
Zr1453     O1464   2.404       .  S
O1454      H1510   0.990       .  S
O1454      H1518   0.990       .  S
O1455      C1475   1.290       .  A
O1456      C1477   1.292       .  A
O1457     Zr1467   2.416       .  S
O1457      C1476   1.280       .  A
O1458     Zr1466   2.415       .  S
O1458      C1477   1.281       .  A
O1459      C1476   1.291       .  A
O1460     Zr1468   2.415       .  S
O1460      C1475   1.280       .  A
O1461     Zr1466   2.405       .  S
O1461     Zr1468   2.373       .  S
O1462     Zr1467   2.389       .  S
O1462     Zr1468   2.384       .  S
O1462      H1497   0.965       .  S
O1463     Zr1466   2.415       .  S
O1463     Zr1483   2.392       .  S
O1463      H1500   0.965       .  S
O1464     Zr1467   2.381       .  S
O1464     Zr1483   2.380       .  S
Zr1465     O1490   2.441       .  S
Zr1465     O1484   2.467       .  S
Zr1465     O1492   2.476       .  S
Zr1465     O1480   2.444       .  S
Zr1465     O1471   2.392       .  S
Zr1465     O1472   2.422       .  S
Zr1465     O1473   2.380       .  S
Zr1465     O1474   2.395       .  S
Zr1466     O1485   2.438       .  S
Zr1466     O1478   2.434       .  S
Zr1466     O1479   2.451       .  S
Zr1466     O1472   2.392       .  S
Zr1466     O1473   2.385       .  S
Zr1467     O1469   2.438       .  S
Zr1467     O1491   2.440       .  S
Zr1467     O1493   2.402       .  S
Zr1467     O1471   2.376       .  S
Zr1467     O1474   2.397       .  S
Zr1468     O1494   2.432       .  S
Zr1468     O1495   2.435       .  S
Zr1468     O1470   2.438       .  S
Zr1468     O1471   2.381       .  S
Zr1468     O1472   2.392       .  S
O1469      H1506   0.990       .  S
O1470      H1501   0.990       .  S
O1470      H1515   0.990       .  S
O1472      H1498   0.964       .  S
O1473     Zr1483   2.380       .  S
O1474     Zr1483   2.392       .  S
O1474      H1499   0.968       .  S
C1475      C2310   1.484       .  S
C1476      C2632   1.481       .  S
C1477      C3083   1.488       .  S
O1478      H1514   0.990       .  S
O1479      C1481   1.289       .  A
O1480      C1481   1.285       .  A
C1481      C2408   1.487       .  S
O1482     Zr1483   2.437       .  S
O1482      H1511   0.990       .  S
Zr1483     O1486   2.437       .  S
Zr1483     O1487   2.440       .  S
Zr1483     O1488   2.397       .  S
O1484      C1489   1.289       .  A
O1485      H1502   0.990       .  S
O1485      H1517   0.990       .  S
O1486      H1503   0.990       .  S
O1487      H1507   0.990       .  S
O1487      H1516   0.990       .  S
O1488      C1489   1.277       .  A
C1489      C2327   1.481       .  S
O1490      H1509   0.990       .  S
O1490      H1513   0.990       .  S
O1491      H1505   0.990       .  S
O1491      H1512   0.990       .  S
O1492      C1496   1.290       .  A
O1493      C1496   1.281       .  A
O1494      H1504   0.990       .  S
O1495      H1508   0.990       .  S
C1496      C3377   1.478       .  S
Zr1519     O1520   2.441       .  S
Zr1519     O1521   2.494       .  S
Zr1519     O1522   2.474   1_554  S
Zr1519     O1525   2.474       .  S
Zr1519     O1527   2.391   1_554  S
Zr1519     O1528   2.378       .  S
Zr1519     O1529   2.427   1_554  S
Zr1519     O1530   2.405   1_554  S
O1520      H1576   0.990       .  S
O1520      H1584   0.990       .  S
O1521      C1541   1.294       .  A
O1522      C1543   1.294       .  A
O1523     Zr1533   2.421       .  S
O1523      C1542   1.282   1_556  A
O1524     Zr1532   2.410       .  S
O1524      C1543   1.280       .  A
O1525      C1542   1.293       .  A
O1526     Zr1534   2.404       .  S
O1526      C1541   1.278       .  A
O1527     Zr1532   2.410       .  S
O1527     Zr1534   2.378   1_556  S
O1528     Zr1533   2.383   1_554  S
O1528     Zr1534   2.384       .  S
O1528      H1563   0.965       .  S
O1529     Zr1532   2.415       .  S
O1529     Zr1549   2.387       .  S
O1529      H1566   0.965       .  S
O1530     Zr1533   2.378       .  S
O1530     Zr1549   2.382       .  S
Zr1531     O1556   2.442       .  S
Zr1531     O1550   2.469       .  S
Zr1531     O1558   2.478       .  S
Zr1531     O1546   2.436       .  S
Zr1531     O1537   2.390       .  S
Zr1531     O1538   2.422       .  S
Zr1531     O1539   2.374       .  S
Zr1531     O1540   2.396       .  S
Zr1532     O1551   2.436       .  S
Zr1532     O1544   2.433       .  S
Zr1532     O1545   2.453       .  S
Zr1532     O1538   2.385       .  S
Zr1532     O1539   2.378       .  S
Zr1533     O1535   2.437       .  S
Zr1533     O1557   2.435   1_556  S
Zr1533     O1559   2.414       .  S
Zr1533     O1537   2.378       .  S
Zr1533     O1540   2.401       .  S
Zr1534     O1560   2.424       .  S
Zr1534     O1561   2.437   1_554  S
Zr1534     O1536   2.436       .  S
Zr1534     O1537   2.374   1_554  S
Zr1534     O1538   2.389   1_554  S
O1535      H1572   0.990       .  S
O1536      H1567   0.990       .  S
O1536      H1581   0.990       .  S
O1538      H1564   0.962       .  S
O1539     Zr1549   2.380       .  S
O1540     Zr1549   2.392       .  S
O1540      H1565   0.972       .  S
C1541      C2324   1.490       .  S
C1542      C2688   1.487       .  S
C1543      C3139   1.488       .  S
O1544      H1580   0.990       .  S
O1545      C1547   1.289       .  A
O1546      C1547   1.284       .  A
C1547      C2352   1.486       .  S
O1548     Zr1549   2.438       .  S
O1548      H1577   0.990       .  S
Zr1549     O1552   2.438       .  S
Zr1549     O1553   2.442       .  S
Zr1549     O1554   2.396       .  S
O1550      C1555   1.289       .  A
O1551      H1568   0.990       .  S
O1551      H1583   0.990       .  S
O1552      H1569   0.990       .  S
O1553      H1573   0.990       .  S
O1553      H1582   0.990       .  S
O1554      C1555   1.276       .  A
C1555      C2313   1.476       .  S
O1556      H1575   0.990       .  S
O1556      H1579   0.990       .  S
O1557      H1571   0.990       .  S
O1557      H1578   0.989       .  S
O1558      C1562   1.292       .  A
O1559      C1562   1.280       .  A
O1560      H1570   0.990       .  S
O1561      H1574   0.990       .  S
C1562      C3321   1.471       .  S
Zr1585     O1586   2.437       .  S
Zr1585     O1587   2.461       .  S
Zr1585     O1588   2.466       .  S
Zr1585     O1591   2.461       .  S
Zr1585     O1593   2.395       .  S
Zr1585     O1594   2.393       .  S
Zr1585     O1595   2.419       .  S
Zr1585     O1596   2.399       .  S
O1586      H1642   0.990       .  S
O1586      H1650   0.990       .  S
O1587      C1607   1.287       .  A
O1588      C1609   1.288       .  A
O1589     Zr1599   2.432       .  S
O1589      C1608   1.286       .  A
O1590     Zr1598   2.410       .  S
O1590      C1609   1.283       .  A
O1591      C1608   1.288       .  A
O1592     Zr1600   2.399       .  S
O1592      C1607   1.279       .  A
O1593     Zr1598   2.402       .  S
O1593     Zr1600   2.376       .  S
O1594     Zr1599   2.389       .  S
O1594     Zr1600   2.393       .  S
O1594      H1629   0.963       .  S
O1595     Zr1598   2.409       .  S
O1595     Zr1615   2.389       .  S
O1595      H1632   0.965       .  S
O1596     Zr1599   2.373       .  S
O1596     Zr1615   2.375       .  S
Zr1597     O1622   2.441       .  S
Zr1597     O1616   2.449       .  S
Zr1597     O1624   2.467       .  S
Zr1597     O1612   2.439       .  S
Zr1597     O1603   2.388       .  S
Zr1597     O1604   2.418       .  S
Zr1597     O1605   2.375       .  S
Zr1597     O1606   2.394       .  S
Zr1598     O1617   2.436       .  S
Zr1598     O1610   2.434       .  S
Zr1598     O1611   2.439       .  S
Zr1598     O1604   2.396       .  S
Zr1598     O1605   2.385       .  S
Zr1599     O1601   2.436       .  S
Zr1599     O1623   2.443       .  S
Zr1599     O1625   2.410       .  S
Zr1599     O1603   2.381       .  S
Zr1599     O1606   2.396       .  S
Zr1600     O1626   2.435       .  S
Zr1600     O1627   2.437       .  S
Zr1600     O1602   2.439       .  S
Zr1600     O1603   2.373       .  S
Zr1600     O1604   2.393       .  S
O1601      H1638   0.990       .  S
O1602      H1633   0.990       .  S
O1602      H1647   0.990       .  S
O1604      H1630   0.964       .  S
O1605     Zr1615   2.374       .  S
O1606     Zr1615   2.386       .  S
O1606      H1631   0.967       .  S
C1607      C2268   1.490       .  S
C1608      C3097   1.494       .  S
C1609      C2649   1.491       .  S
O1610      H1646   0.990       .  S
O1611      C1613   1.284       .  A
O1612      C1613   1.287       .  A
C1613      C2296   1.488       .  S
O1614     Zr1615   2.439       .  S
O1614      H1643   0.990       .  S
Zr1615     O1618   2.437       .  S
Zr1615     O1619   2.440       .  S
Zr1615     O1620   2.395       .  S
O1616      C1621   1.284       .  A
O1617      H1634   0.990       .  S
O1617      H1649   0.990       .  S
O1618      H1635   0.990       .  S
O1619      H1639   0.990       .  S
O1619      H1648   0.990       .  S
O1620      C1621   1.278       .  A
C1621      C2285   1.485       .  S
O1622      H1641   0.990       .  S
O1622      H1645   0.990       .  S
O1623      H1637   0.990       .  S
O1623      H1644   0.990       .  S
O1624      C1628   1.289       .  A
O1625      C1628   1.281       .  A
O1626      H1636   0.990       .  S
O1627      H1640   0.990       .  S
C1628      C2915   1.467       .  S
Zr1651     O1652   2.441   1_556  S
Zr1651     O1653   2.445   1_556  S
Zr1651     O1654   2.470       .  S
Zr1651     O1657   2.459   1_556  S
Zr1651     O1659   2.386       .  S
Zr1651     O1660   2.384   1_556  S
Zr1651     O1661   2.413       .  S
Zr1651     O1662   2.400       .  S
O1652      H1708   0.990       .  S
O1652      H1716   0.990       .  S
O1653      C1673   1.285       .  A
O1654      C1675   1.292       .  A
O1655     Zr1665   2.417       .  S
O1655      C1674   1.280   1_556  A
O1656     Zr1664   2.398       .  S
O1656      C1675   1.278       .  A
O1657      C1674   1.291       .  A
O1658     Zr1666   2.408       .  S
O1658      C1673   1.280       .  A
O1659     Zr1664   2.400       .  S
O1659     Zr1666   2.372   1_556  S
O1660     Zr1665   2.388   1_554  S
O1660     Zr1666   2.386       .  S
O1660      H1695   0.966       .  S
O1661     Zr1664   2.410       .  S
O1661     Zr1681   2.388       .  S
O1661      H1698   0.967       .  S
O1662     Zr1665   2.386       .  S
O1662     Zr1681   2.380       .  S
Zr1663     O1688   2.444       .  S
Zr1663     O1682   2.453       .  S
Zr1663     O1690   2.477       .  S
Zr1663     O1678   2.434       .  S
Zr1663     O1669   2.386       .  S
Zr1663     O1670   2.422       .  S
Zr1663     O1671   2.381       .  S
Zr1663     O1672   2.392       .  S
Zr1664     O1683   2.438       .  S
Zr1664     O1676   2.433       .  S
Zr1664     O1677   2.431       .  S
Zr1664     O1670   2.390       .  S
Zr1664     O1671   2.389       .  S
Zr1665     O1667   2.437       .  S
Zr1665     O1689   2.440   1_556  S
Zr1665     O1691   2.408       .  S
Zr1665     O1669   2.374       .  S
Zr1665     O1672   2.397       .  S
Zr1666     O1692   2.435       .  S
Zr1666     O1693   2.435   1_554  S
Zr1666     O1668   2.437       .  S
Zr1666     O1669   2.375   1_554  S
Zr1666     O1670   2.399   1_554  S
O1667      H1704   0.990       .  S
O1668      H1699   0.990       .  S
O1668      H1713   0.990       .  S
O1670      H1696   0.964       .  S
O1671     Zr1681   2.380       .  S
O1672     Zr1681   2.390       .  S
O1672      H1697   0.969       .  S
C1673      C2282   1.485       .  S
C1674      C3153   1.481       .  S
C1675      C2702   1.483       .  S
O1676      H1712   0.989       .  S
O1677      C1679   1.282       .  A
O1678      C1679   1.286       .  A
C1679      C2254   1.491       .  S
O1680     Zr1681   2.435       .  S
O1680      H1709   0.990       .  S
Zr1681     O1684   2.435       .  S
Zr1681     O1685   2.438       .  S
Zr1681     O1686   2.395       .  S
O1682      C1687   1.286       .  A
O1683      H1700   0.990       .  S
O1683      H1715   0.990       .  S
O1684      H1701   0.990       .  S
O1685      H1705   0.990       .  S
O1685      H1714   0.990       .  S
O1686      C1687   1.278       .  A
C1687      C2271   1.491       .  S
O1688      H1707   0.991       .  S
O1688      H1711   0.990       .  S
O1689      H1703   0.990   1_554  S
O1689      H1710   0.990       .  S
O1690      C1694   1.289       .  A
O1691      C1694   1.281       .  A
O1692      H1702   0.990       .  S
O1693      H1706   0.991       .  S
C1694      C2873   1.469       .  S
Zr1717     O1718   2.442       .  S
Zr1717     O1719   2.468       .  S
Zr1717     O1720   2.447       .  S
Zr1717     O1723   2.458       .  S
Zr1717     O1725   2.389       .  S
Zr1717     O1726   2.384       .  S
Zr1717     O1727   2.420       .  S
Zr1717     O1728   2.400       .  S
O1718      H1774   0.990       .  S
O1718      H1782   0.991       .  S
O1719      C1739   1.291       .  A
O1720      C1741   1.287       .  A
O1721     Zr1731   2.421       .  S
O1721      C1740   1.283       .  A
O1722     Zr1730   2.414       .  S
O1722      C1741   1.280       .  A
O1723      C1740   1.287       .  A
O1724     Zr1732   2.395       .  S
O1724      C1739   1.275       .  A
O1725     Zr1730   2.401       .  S
O1725     Zr1732   2.375       .  S
O1726     Zr1731   2.388       .  S
O1726     Zr1732   2.396       .  S
O1726      H1761   0.966       .  S
O1727     Zr1730   2.408       .  S
O1727     Zr1747   2.395       .  S
O1727      H1764   0.966       .  S
O1728     Zr1731   2.376       .  S
O1728     Zr1747   2.386       .  S
Zr1729     O1754   2.440       .  S
Zr1729     O1748   2.452       .  S
Zr1729     O1756   2.477       .  S
Zr1729     O1744   2.432       .  S
Zr1729     O1735   2.377       .  S
Zr1729     O1736   2.422       .  S
Zr1729     O1737   2.380       .  S
Zr1729     O1738   2.391       .  S
Zr1730     O1749   2.437       .  S
Zr1730     O1742   2.435       .  S
Zr1730     O1743   2.443       .  S
Zr1730     O1736   2.390       .  S
Zr1730     O1737   2.388       .  S
Zr1731     O1733   2.438       .  S
Zr1731     O1755   2.438       .  S
Zr1731     O1757   2.410       .  S
Zr1731     O1735   2.371       .  S
Zr1731     O1738   2.402       .  S
Zr1732     O1758   2.430       .  S
Zr1732     O1759   2.436       .  S
Zr1732     O1734   2.435       .  S
Zr1732     O1735   2.365       .  S
Zr1732     O1736   2.392       .  S
O1733      H1770   0.990       .  S
O1734      H1765   0.990       .  S
O1734      H1779   0.990       .  S
O1736      H1762   0.964       .  S
O1737     Zr1747   2.375       .  S
O1738     Zr1747   2.391       .  S
O1738      H1763   0.971       .  S
C1739      C2229   1.486   1_554  S
C1740      C2212   1.484       .  S
C1741      C2506   1.478       .  S
O1742      H1778   0.990       .  S
O1743      C1745   1.288       .  A
O1744      C1745   1.284       .  A
C1745      C2299   1.496       .  S
O1746     Zr1747   2.441       .  S
O1746      H1775   0.991       .  S
Zr1747     O1750   2.438       .  S
Zr1747     O1751   2.440       .  S
Zr1747     O1752   2.407       .  S
O1748      C1753   1.285       .  A
O1749      H1766   0.990       .  S
O1749      H1781   0.990       .  S
O1750      H1767   0.990       .  S
O1751      H1771   0.990       .  S
O1751      H1780   0.990       .  S
O1752      C1753   1.280       .  A
C1753      C2240   1.492       .  S
O1754      H1773   0.990       .  S
O1754      H1777   0.990       .  S
O1755      H1769   0.990       .  S
O1755      H1776   0.990       .  S
O1756      C1760   1.291       .  A
O1757      C1760   1.280       .  A
O1758      H1768   0.990       .  S
O1759      H1772   0.991       .  S
C1760      C2800   1.467       .  S
Zr1783     O1784   2.440       .  S
Zr1783     O1785   2.461       .  S
Zr1783     O1786   2.463       .  S
Zr1783     O1789   2.467       .  S
Zr1783     O1791   2.389       .  S
Zr1783     O1792   2.390       .  S
Zr1783     O1793   2.419       .  S
Zr1783     O1794   2.403       .  S
O1784      H1840   0.990       .  S
O1784      H1848   0.990       .  S
O1785      C1805   1.287       .  A
O1786      C1807   1.290       .  A
O1787     Zr1797   2.397       .  S
O1787      C1806   1.280       .  A
O1788     Zr1796   2.418       .  S
O1788      C1807   1.281       .  A
O1789      C1806   1.290       .  A
O1790     Zr1798   2.403       .  S
O1790      C1805   1.279       .  A
O1791     Zr1796   2.402       .  S
O1791     Zr1798   2.381       .  S
O1792     Zr1797   2.394       .  S
O1792     Zr1798   2.382       .  S
O1792      H1827   0.965       .  S
O1793     Zr1796   2.404       .  S
O1793     Zr1813   2.387       .  S
O1793      H1830   0.964       .  S
O1794     Zr1797   2.379       .  S
O1794     Zr1813   2.375       .  S
Zr1795     O1820   2.441       .  S
Zr1795     O1814   2.470       .  S
Zr1795     O1822   2.489       .  S
Zr1795     O1810   2.434       .  S
Zr1795     O1801   2.387       .  S
Zr1795     O1802   2.423       .  S
Zr1795     O1803   2.386       .  S
Zr1795     O1804   2.386       .  S
Zr1796     O1815   2.437       .  S
Zr1796     O1808   2.435       .  S
Zr1796     O1809   2.437       .  S
Zr1796     O1802   2.395       .  S
Zr1796     O1803   2.386       .  S
Zr1797     O1799   2.436       .  S
Zr1797     O1821   2.439       .  S
Zr1797     O1823   2.401       .  S
Zr1797     O1801   2.377       .  S
Zr1797     O1804   2.387       .  S
Zr1798     O1824   2.436       .  S
Zr1798     O1825   2.436       .  S
Zr1798     O1800   2.437       .  S
Zr1798     O1801   2.378       .  S
Zr1798     O1802   2.390       .  S
O1799      H1836   0.990       .  S
O1800      H1831   0.990       .  S
O1800      H1845   0.990       .  S
O1802      H1828   0.964       .  S
O1803     Zr1813   2.384       .  S
O1804     Zr1813   2.390       .  S
O1804      H1829   0.966       .  S
C1805      C2243   1.487       .  S
C1806      C2198   1.484       .  S
C1807      C2467   1.485       .  S
O1808      H1844   0.990       .  S
O1809      C1811   1.286       .  A
O1810      C1811   1.284       .  A
C1811      C2257   1.475       .  S
O1812     Zr1813   2.439       .  S
O1812      H1841   0.990       .  S
Zr1813     O1816   2.437       .  S
Zr1813     O1817   2.440       .  S
Zr1813     O1818   2.385       .  S
O1814      C1819   1.291       .  A
O1815      H1832   0.990       .  S
O1815      H1847   0.990       .  S
O1816      H1833   0.990       .  S
O1817      H1837   0.990       .  S
O1817      H1846   0.990       .  S
O1818      C1819   1.274       .  A
C1819      C2226   1.481       .  S
O1820      H1839   0.990       .  S
O1820      H1843   0.990       .  S
O1821      H1835   0.990       .  S
O1821      H1842   0.990       .  S
O1822      C1826   1.292       .  A
O1823      C1826   1.278       .  A
O1824      H1834   0.990       .  S
O1825      H1838   0.990       .  S
C1826      C2758   1.477       .  S
Zr1849     O1850   2.440   1_554  S
Zr1849     O1851   2.460   1_554  S
Zr1849     O1852   2.474       .  S
Zr1849     O1855   2.441   1_554  S
Zr1849     O1857   2.386       .  S
Zr1849     O1858   2.392   1_554  S
Zr1849     O1859   2.425       .  S
Zr1849     O1860   2.412       .  S
O1850      H1906   0.990       .  S
O1850      H1914   0.991       .  S
O1851      C1871   1.290       .  A
O1852      C1873   1.288       .  A
O1853     Zr1863   2.421       .  S
O1853      C1872   1.283   1_554  A
O1854     Zr1862   2.409       .  S
O1854      C1873   1.273       .  A
O1855      C1872   1.286       .  A
O1856     Zr1864   2.398       .  S
O1856      C1871   1.276       .  A
O1857     Zr1862   2.399       .  S
O1857     Zr1864   2.383   1_554  S
O1858     Zr1863   2.389   1_556  S
O1858     Zr1864   2.374       .  S
O1858      H1893   0.967       .  S
O1859     Zr1862   2.399       .  S
O1859     Zr1879   2.382       .  S
O1859      H1896   0.966       .  S
O1860     Zr1863   2.385       .  S
O1860     Zr1879   2.384       .  S
Zr1861     O1886   2.441       .  S
Zr1861     O1880   2.468       .  S
Zr1861     O1888   2.468       .  S
Zr1861     O1876   2.464       .  S
Zr1861     O1867   2.404       .  S
Zr1861     O1868   2.421       .  S
Zr1861     O1869   2.380       .  S
Zr1861     O1870   2.392       .  S
Zr1862     O1881   2.437       .  S
Zr1862     O1874   2.434       .  S
Zr1862     O1875   2.411       .  S
Zr1862     O1868   2.396       .  S
Zr1862     O1869   2.391       .  S
Zr1863     O1865   2.435       .  S
Zr1863     O1887   2.438   1_554  S
Zr1863     O1889   2.405       .  S
Zr1863     O1867   2.388       .  S
Zr1863     O1870   2.397       .  S
Zr1864     O1890   2.435       .  S
Zr1864     O1891   2.435       .  S
Zr1864     O1866   2.438       .  S
Zr1864     O1867   2.386   1_556  S
Zr1864     O1868   2.380   1_556  S
O1865      H1902   0.990       .  S
O1866      H1897   0.990       .  S
O1866      H1911   0.990       .  S
O1868      H1894   0.963       .  S
O1869     Zr1879   2.390       .  S
O1870     Zr1879   2.378       .  S
O1870      H1895   0.966       .  S
C1871      C2156   1.485       .  S
C1872      C2187   1.478       .  S
C1873      C3122   1.490       .  S
O1874      H1910   0.990       .  S
O1875      C1877   1.279       .  A
O1876      C1877   1.290       .  A
C1877      C2369   1.479       .  S
O1878     Zr1879   2.437       .  S
O1878      H1907   0.990       .  S
Zr1879     O1882   2.437       .  S
Zr1879     O1883   2.437       .  S
Zr1879     O1884   2.385       .  S
O1880      C1885   1.291       .  A
O1881      H1898   0.989       .  S
O1881      H1913   0.990       .  S
O1882      H1899   0.989       .  S
O1883      H1903   0.990       .  S
O1883      H1912   0.990       .  S
O1884      C1885   1.274       .  A
C1885      C2170   1.487       .  S
O1886      H1905   0.991       .  S
O1886      H1909   0.990       .  S
O1887      H1901   0.990       .  S
O1887      H1908   0.990       .  S
O1888      C1892   1.292       .  A
O1889      C1892   1.279       .  A
O1890      H1900   0.990       .  S
O1891      H1904   0.990   1_556  S
C1892      C2215   1.491       .  S
Zr1915     O1916   2.441       .  S
Zr1915     O1917   2.467       .  S
Zr1915     O1918   2.480       .  S
Zr1915     O1921   2.447       .  S
Zr1915     O1923   2.381       .  S
Zr1915     O1924   2.386       .  S
Zr1915     O1925   2.424       .  S
Zr1915     O1926   2.415       .  S
O1916      H1972   0.990       .  S
O1916      H1980   0.990       .  S
O1917      C1937   1.292       .  A
O1918      C1939   1.290       .  A
O1919     Zr1929   2.417       .  S
O1919      C1938   1.281       .  A
O1920     Zr1928   2.413       .  S
O1920      C1939   1.274       .  A
O1921      C1938   1.289       .  A
O1922     Zr1930   2.390       .  S
O1922      C1937   1.274       .  A
O1923     Zr1928   2.400       .  S
O1923     Zr1930   2.386       .  S
O1924     Zr1929   2.395       .  S
O1924     Zr1930   2.374       .  S
O1924      H1959   0.964       .  S
O1925     Zr1928   2.395       .  S
O1925     Zr1945   2.378       .  S
O1925      H1962   0.964       .  S
O1926     Zr1929   2.391       .  S
O1926     Zr1945   2.394       .  S
Zr1927     O1952   2.442       .  S
Zr1927     O1946   2.459       .  S
Zr1927     O1954   2.448       .  S
Zr1927     O1942   2.446       .  S
Zr1927     O1933   2.406       .  S
Zr1927     O1934   2.413       .  S
Zr1927     O1935   2.380       .  S
Zr1927     O1936   2.387       .  S
Zr1928     O1947   2.437       .  S
Zr1928     O1940   2.434       .  S
Zr1928     O1941   2.414       .  S
Zr1928     O1934   2.392       .  S
Zr1928     O1935   2.392       .  S
Zr1929     O1931   2.435       .  S
Zr1929     O1953   2.439       .  S
Zr1929     O1955   2.410       .  S
Zr1929     O1933   2.396       .  S
Zr1929     O1936   2.396       .  S
Zr1930     O1956   2.435       .  S
Zr1930     O1957   2.435       .  S
Zr1930     O1932   2.439       .  S
Zr1930     O1933   2.389       .  S
Zr1930     O1934   2.372       .  S
O1931      H1968   0.990       .  S
O1932      H1963   0.990       .  S
O1932      H1977   0.990       .  S
O1934      H1960   0.963       .  S
O1935     Zr1945   2.389       .  S
O1936     Zr1945   2.375       .  S
O1936      H1961   0.967       .  S
C1937      C2173   1.486       .  S
C1938      C2145   1.490       .  S
C1939      C3066   1.499       .  S
O1940      H1976   0.990       .  S
O1941      C1943   1.283       .  A
O1942      C1943   1.285       .  A
C1943      C2341   1.481       .  S
O1944     Zr1945   2.436       .  S
O1944      H1973   0.990       .  S
Zr1945     O1948   2.439       .  S
Zr1945     O1949   2.438       .  S
Zr1945     O1950   2.396       .  S
O1946      C1951   1.289       .  A
O1947      H1964   0.990       .  S
O1947      H1979   0.990       .  S
O1948      H1965   0.990       .  S
O1949      H1969   0.990       .  S
O1949      H1978   0.990       .  S
O1950      C1951   1.275       .  A
C1951      C2159   1.485       .  S
O1952      H1971   0.990       .  S
O1952      H1975   0.991       .  S
O1953      H1967   0.990       .  S
O1953      H1974   0.990       .  S
O1954      C1958   1.286       .  A
O1955      C1958   1.280       .  A
O1956      H1966   0.990       .  S
O1957      H1970   0.990       .  S
C1958      C2201   1.479       .  S
Zr1981     O1982   2.441       .  S
Zr1981     O1983   2.472       .  S
Zr1981     O1984   2.472       .  S
Zr1981     O1987   2.435       .  S
Zr1981     O1989   2.381       .  S
Zr1981     O1990   2.393       .  S
Zr1981     O1991   2.426       .  S
Zr1981     O1992   2.414       .  S
O1982      H2038   0.990       .  S
O1982      H2046   0.991       .  S
O1983      C2003   1.292       .  A
O1984      C2005   1.288       .  A
O1985     Zr1995   2.435       .  S
O1985      C2004   1.286       .  A
O1986     Zr1994   2.407       .  S
O1986      C2005   1.272       .  A
O1987      C2004   1.285       .  A
O1988     Zr1996   2.398       .  S
O1988      C2003   1.276       .  A
O1989     Zr1994   2.403       .  S
O1989     Zr1996   2.384       .  S
O1990     Zr1995   2.393       .  S
O1990     Zr1996   2.376       .  S
O1990      H2025   0.965       .  S
O1991     Zr1994   2.395       .  S
O1991     Zr2011   2.388       .  S
O1991      H2028   0.967       .  S
O1992     Zr1995   2.384       .  S
O1992     Zr2011   2.387       .  S
Zr1993     O2018   2.441       .  S
Zr1993     O2012   2.461       .  S
Zr1993     O2020   2.439       .  S
Zr1993     O2008   2.456       .  S
Zr1993     O1999   2.409       .  S
Zr1993     O2000   2.412       .  S
Zr1993     O2001   2.375       .  S
Zr1993     O2002   2.388       .  S
Zr1994     O2013   2.436       .  S
Zr1994     O2006   2.428       .  S
Zr1994     O2007   2.410       .  S
Zr1994     O2000   2.398       .  S
Zr1994     O2001   2.387       .  S
Zr1995     O1997   2.435       .  S
Zr1995     O2019   2.438       .  S
Zr1995     O2021   2.425       .  S
Zr1995     O1999   2.395       .  S
Zr1995     O2002   2.394       .  S
Zr1996     O2022   2.436       .  S
Zr1996     O2023   2.435       .  S
Zr1996     O1998   2.438       .  S
Zr1996     O1999   2.393       .  S
Zr1996     O2000   2.377       .  S
O1997      H2034   0.990       .  S
O1998      H2029   0.990       .  S
O1998      H2043   0.990       .  S
O2000      H2026   0.963       .  S
O2001     Zr2011   2.389       .  S
O2002     Zr2011   2.372       .  S
O2002      H2027   0.968       .  S
C2003      C2114   1.491       .  S
C2004      C2142   1.478       .  S
C2005      C3013   1.492       .  S
O2006      H2042   0.989       .  S
O2007      C2009   1.279       .  A
O2008      C2009   1.289       .  A
C2009      C3276   1.481       .  S
O2010     Zr2011   2.438       .  S
O2010      H2039   0.990       .  S
Zr2011     O2014   2.436       .  S
Zr2011     O2015   2.439       .  S
Zr2011     O2016   2.403       .  S
O2012      C2017   1.290       .  A
O2013      H2030   0.990       .  S
O2013      H2045   0.990       .  S
O2014      H2031   0.990       .  S
O2015      H2035   0.990       .  S
O2015      H2044   0.990       .  S
O2016      C2017   1.278       .  A
C2017      C2128   1.484       .  S
O2018      H2037   0.991       .  S
O2018      H2041   0.990       .  S
O2019      H2033   0.990       .  S
O2019      H2040   0.990       .  S
O2020      C2024   1.286       .  A
O2021      C2024   1.283       .  A
O2022      H2032   0.990       .  S
O2023      H2036   0.990       .  S
C2024      C2831   1.478       .  S
Zr2047     O2048   2.441       .  S
Zr2047     O2049   2.473       .  S
Zr2047     O2050   2.480       .  S
Zr2047     O2053   2.444       .  S
Zr2047     O2055   2.386       .  S
Zr2047     O2056   2.388       .  S
Zr2047     O2057   2.434       .  S
Zr2047     O2058   2.415       .  S
O2048      H2104   0.990       .  S
O2048      H2112   0.990       .  S
O2049      C2069   1.292       .  A
O2050      C2071   1.289       .  A
O2051     Zr2061   2.420       .  S
O2051      C2070   1.281       .  A
O2052     Zr2060   2.415       .  S
O2052      C2071   1.274       .  A
O2053      C2070   1.289       .  A
O2054     Zr2062   2.396       .  S
O2054      C2069   1.275       .  A
O2055     Zr2060   2.405       .  S
O2055     Zr2062   2.381       .  S
O2056     Zr2061   2.393       .  S
O2056     Zr2062   2.375       .  S
O2056      H2091   0.960       .  S
O2057     Zr2060   2.402       .  S
O2057     Zr2077   2.383       .  S
O2057      H2094   0.967       .  S
O2058     Zr2061   2.387       .  S
O2058     Zr2077   2.391       .  S
Zr2059     O2084   2.440       .  S
Zr2059     O2078   2.474       .  S
Zr2059     O2086   2.444       .  S
Zr2059     O2074   2.450       .  S
Zr2059     O2065   2.407       .  S
Zr2059     O2066   2.418       .  S
Zr2059     O2067   2.376       .  S
Zr2059     O2068   2.389       .  S
Zr2060     O2079   2.435       .  S
Zr2060     O2072   2.431       .  S
Zr2060     O2073   2.430       .  S
Zr2060     O2066   2.395       .  S
Zr2060     O2067   2.386       .  S
Zr2061     O2063   2.434       .  S
Zr2061     O2085   2.439       .  S
Zr2061     O2087   2.404       .  S
Zr2061     O2065   2.391       .  S
Zr2061     O2068   2.396       .  S
Zr2062     O2088   2.435       .  S
Zr2062     O2089   2.435       .  S
Zr2062     O2064   2.439       .  S
Zr2062     O2065   2.392       .  S
Zr2062     O2066   2.373       .  S
O2063      H2100   0.990       .  S
O2064      H2095   0.990       .  S
O2064      H2109   0.990       .  S
O2066      H2092   0.962       .  S
O2067     Zr2077   2.392       .  S
O2068     Zr2077   2.380       .  S
O2068      H2093   0.963       .  S
C2069      C2131   1.485   1_556  S
C2070      C2184   1.490       .  S
C2071      C2982   1.498       .  S
O2072      H2108   0.990       .  S
O2073      C2075   1.286       .  A
O2074      C2075   1.285       .  A
C2075      C3237   1.490       .  S
O2076     Zr2077   2.439       .  S
O2076      H2105   0.990       .  S
Zr2077     O2080   2.438       .  S
Zr2077     O2081   2.443       .  S
Zr2077     O2082   2.394       .  S
O2078      C2083   1.293       .  A
O2079      H2096   0.990       .  S
O2079      H2111   0.990       .  S
O2080      H2097   0.989       .  S
O2081      H2101   0.989       .  S
O2081      H2110   0.990       .  S
O2082      C2083   1.275       .  A
C2083      C2117   1.491       .  S
O2084      H2103   0.990       .  S
O2084      H2107   0.990       .  S
O2085      H2099   0.990       .  S
O2085      H2106   0.989       .  S
O2086      C2090   1.287       .  A
O2087      C2090   1.279       .  A
O2088      H2098   0.990       .  S
O2089      H2102   0.990       .  S
C2090      C2789   1.483       .  S
C2113      C2114   1.401       .  A
C2113      C2118   1.400       .  A
C2113      H2120   1.084       .  S
C2114      C2115   1.420       .  A
C2115      C2116   1.401       .  A
C2115      N2122   1.429       .  S
C2116      C2117   1.401       .  A
C2116      H2121   1.084       .  S
C2117      C2118   1.421       .  A
C2118      N2119   1.429       .  S
N2119      O2123   1.262       .  A
N2119      O2124   1.262       .  A
N2122      O2126   1.262       .  A
N2122      O2125   1.262       .  A
C2127      C2128   1.401       .  A
C2127      C2132   1.401       .  A
C2127      H2134   1.084       .  S
C2128      C2129   1.415       .  A
C2129      C2130   1.401       .  A
C2129      N2136   1.428       .  S
C2130      C2131   1.402       .  A
C2130      H2135   1.084       .  S
C2131      C2132   1.418       .  A
C2132      N2133   1.429       .  S
N2133      O2137   1.262       .  A
N2133      O2138   1.262       .  A
N2136      O2140   1.262       .  A
N2136      O2139   1.262       .  A
C2141      C2142   1.401       .  A
C2141      C2146   1.400       .  A
C2141      H2148   1.084       .  S
C2142      C2143   1.411       .  A
C2143      C2144   1.396       .  A
C2143      N2150   1.428       .  S
C2144      C2145   1.406       .  A
C2144      H2149   1.083       .  S
C2145      C2146   1.420       .  A
C2146      N2147   1.429       .  S
N2147      O2151   1.262       .  A
N2147      O2152   1.262       .  A
N2150      O2154   1.262       .  A
N2150      O2153   1.262       .  A
C2155      C2156   1.402       .  A
C2155      C2160   1.400       .  A
C2155      H2162   1.084       .  S
C2156      C2157   1.417       .  A
C2157      C2158   1.399       .  A
C2157      N2164   1.429       .  S
C2158      C2159   1.401       .  A
C2158      H2163   1.084       .  S
C2159      C2160   1.418       .  A
C2160      N2161   1.429       .  S
N2161      O2165   1.262       .  A
N2161      O2166   1.262       .  A
N2164      O2168   1.262       .  A
N2164      O2167   1.262       .  A
C2169      C2170   1.401       .  A
C2169      C2174   1.400       .  A
C2169      H2176   1.084       .  S
C2170      C2171   1.419       .  A
C2171      C2172   1.397       .  A
C2171      N2178   1.429       .  S
C2172      C2173   1.400       .  A
C2172      H2177   1.084       .  S
C2173      C2174   1.420       .  A
C2174      N2175   1.429       .  S
N2175      O2179   1.262       .  A
N2175      O2180   1.262       .  A
N2178      O2182   1.262       .  A
N2178      O2181   1.262       .  A
C2183      C2184   1.405       .  A
C2183      C2188   1.392       .  A
C2183      H2190   1.083       .  S
C2184      C2185   1.420       .  A
C2185      C2186   1.403       .  A
C2185      N2192   1.430       .  S
C2186      C2187   1.404       .  A
C2186      H2191   1.084       .  S
C2187      C2188   1.408       .  A
C2188      N2189   1.427       .  S
N2189      O2193   1.262       .  A
N2189      O2194   1.262   1_556  A
N2192      O2196   1.262       .  A
N2192      O2195   1.262       .  A
C2197      C2198   1.407       .  A
C2197      C2202   1.392   1_565  A
C2197      H2204   1.084       .  S
C2198      C2199   1.413       .  A
C2199      C2200   1.403   1_565  A
C2199      N2206   1.428       .  S
C2200      C2201   1.406       .  A
C2200      H2205   1.084       .  S
C2201      C2202   1.410       .  A
C2202      N2203   1.429       .  S
N2203      O2207   1.262       .  A
N2203      O2208   1.262       .  A
N2206      O2210   1.262       .  A
N2206      O2209   1.262       .  A
C2211      C2212   1.401       .  A
C2211      C2216   1.394   1_565  A
C2211      H2218   1.085       .  S
C2212      C2213   1.413       .  A
C2213      C2214   1.404   1_565  A
C2213      N2220   1.427       .  S
C2214      C2215   1.406       .  A
C2214      H2219   1.084       .  S
C2215      C2216   1.419       .  A
C2216      N2217   1.429       .  S
N2217      O2221   1.262       .  A
N2217      O2222   1.262       .  A
N2220      O2224   1.262       .  A
N2220      O2223   1.262       .  A
C2225      C2226   1.400       .  A
C2225      C2230   1.401       .  A
C2225      H2232   1.084       .  S
C2226      C2227   1.416       .  A
C2227      C2228   1.398       .  A
C2227      N2234   1.429       .  S
C2228      C2229   1.402       .  A
C2228      H2233   1.084       .  S
C2229      C2230   1.419       .  A
C2230      N2231   1.429       .  S
N2231      O2235   1.262       .  A
N2231      O2236   1.262       .  A
N2234      O2238   1.262       .  A
N2234      O2237   1.262       .  A
C2239      C2240   1.410       .  A
C2239      C2244   1.399       .  A
C2239      H2246   1.084       .  S
C2240      C2241   1.413       .  A
C2241      C2242   1.401       .  A
C2241      N2248   1.428       .  S
C2242      C2243   1.408       .  A
C2242      H2247   1.084       .  S
C2243      C2244   1.409       .  A
C2244      N2245   1.428       .  S
N2245      O2249   1.262       .  A
N2245      O2250   1.262       .  A
N2248      O2252   1.262       .  A
N2248      O2251   1.262       .  A
C2253      C2254   1.407       .  A
C2253      C2258   1.394       .  A
C2253      H2260   1.084       .  S
C2254      C2255   1.419       .  A
C2255      C2256   1.401       .  A
C2255      N2262   1.428       .  S
C2256      C2257   1.401       .  A
C2256      H2261   1.084       .  S
C2257      C2258   1.409       .  A
C2258      N2259   1.428       .  S
N2259      O2263   1.262       .  A
N2259      O2264   1.262       .  A
N2262      O2266   1.262       .  A
N2262      O2265   1.262       .  A
C2267      C2268   1.409       .  A
C2267      C2272   1.396       .  A
C2267      H2274   1.084       .  S
C2268      C2269   1.411       .  A
C2269      C2270   1.400       .  A
C2269      N2276   1.428       .  S
C2270      C2271   1.412       .  A
C2270      H2275   1.083       .  S
C2271      C2272   1.412       .  A
C2272      N2273   1.428       .  S
N2273      O2277   1.262       .  A
N2273      O2278   1.262       .  A
N2276      O2280   1.262       .  A
N2276      O2279   1.262       .  A
C2281      C2282   1.408       .  A
C2281      C2286   1.400       .  A
C2281      H2288   1.084       .  S
C2282      C2283   1.413       .  A
C2283      C2284   1.394       .  A
C2283      N2290   1.429       .  S
C2284      C2285   1.406       .  A
C2284      H2289   1.084       .  S
C2285      C2286   1.413       .  A
C2286      N2287   1.429       .  S
N2287      O2291   1.262       .  A
N2287      O2292   1.262       .  A
N2290      O2294   1.262       .  A
N2290      O2293   1.262       .  A
C2295      C2296   1.401       .  A
C2295      C2300   1.395       .  A
C2295      H2302   1.084       .  S
C2296      C2297   1.414       .  A
C2297      C2298   1.405       .  A
C2297      N2304   1.428       .  S
C2298      C2299   1.409       .  A
C2298      H2303   1.084       .  S
C2299      C2300   1.419       .  A
C2300      N2301   1.427       .  S
N2301      O2305   1.262       .  A
N2301      O2306   1.262       .  A
N2304      O2308   1.262       .  A
N2304      O2307   1.262       .  A
C2309      C2310   1.405       .  A
C2309      C2314   1.409       .  A
C2309      H2316   1.084       .  S
C2310      C2311   1.416       .  A
C2311      C2312   1.399       .  A
C2311      N2318   1.427       .  S
C2312      C2313   1.393       .  A
C2312      H2317   1.084       .  S
C2313      C2314   1.413       .  A
C2314      N2315   1.431       .  S
N2315      O2319   1.262       .  A
N2315      O2320   1.262       .  A
N2318      O2322   1.261       .  A
N2318      O2321   1.262       .  A
C2323      C2324   1.404       .  A
C2323      C2328   1.408       .  A
C2323      H2330   1.084       .  S
C2324      C2325   1.420       .  A
C2325      C2326   1.400       .  A
C2325      N2332   1.428       .  S
C2326      C2327   1.394       .  A
C2326      H2331   1.084       .  S
C2327      C2328   1.415       .  A
C2328      N2329   1.431       .  S
N2329      O2333   1.261       .  A
N2329      O2334   1.263       .  A
N2332      O2336   1.262       .  A
N2332      O2335   1.262       .  A
C2337      C2338   1.402       .  A
C2337      C2342   1.399       .  A
C2337      H2344   1.084       .  S
C2338      C2339   1.412       .  A
C2339      C2340   1.392       .  A
C2339      N2346   1.429       .  S
C2340      C2341   1.404       .  A
C2340      H2345   1.084       .  S
C2341      C2342   1.415       .  A
C2342      N2343   1.428       .  S
N2343      O2347   1.262       .  A
N2343      O2348   1.262       .  A
N2346      O2350   1.262       .  A
N2346      O2349   1.262       .  A
C2351      C2352   1.403       .  A
C2351      C2356   1.404       .  A
C2351      H2358   1.084       .  S
C2352      C2353   1.414       .  A
C2353      C2354   1.396       .  A
C2353      N2360   1.428       .  S
C2354      C2355   1.406       .  A
C2354      H2359   1.083       .  S
C2355      C2356   1.420       .  A
C2356      N2357   1.428       .  S
N2357      O2361   1.262       .  A
N2357      O2362   1.262       .  A
N2360      O2364   1.262       .  A
N2360      O2363   1.262       .  A
C2365      C2366   1.407       .  A
C2365      C2370   1.395       .  A
C2365      H2372   1.084       .  S
C2366      C2367   1.416       .  A
C2367      C2368   1.401       .  A
C2367      N2374   1.427       .  S
C2368      C2369   1.403       .  A
C2368      H2373   1.084       .  S
C2369      C2370   1.412       .  A
C2370      N2371   1.429       .  S
N2371      O2375   1.262       .  A
N2371      O2376   1.262       .  A
N2374      O2378   1.262       .  A
N2374      O2377   1.262       .  A
C2379      C2380   1.403       .  A
C2379      C2384   1.399       .  A
C2379      H2386   1.084       .  S
C2380      C2381   1.420       .  A
C2381      C2382   1.402       .  A
C2381      N2388   1.428       .  S
C2382      C2383   1.401       .  A
C2382      H2387   1.084       .  S
C2383      C2384   1.417       .  A
C2384      N2385   1.429       .  S
N2385      O2389   1.262       .  A
N2385      O2390   1.262       .  A
N2388      O2392   1.262       .  A
N2388      O2391   1.262       .  A
C2393      C2394   1.406       .  A
C2393      C2398   1.402       .  A
C2393      H2400   1.084       .  S
C2394      C2395   1.412       .  A
C2395      C2396   1.396       .  A
C2395      N2402   1.428       .  S
C2396      C2397   1.405       .  A
C2396      H2401   1.084       .  S
C2397      C2398   1.414       .  A
C2398      N2399   1.429       .  S
N2399      O2403   1.262       .  A
N2399      O2404   1.262       .  A
N2402      O2406   1.261       .  A
N2402      O2405   1.262       .  A
C2407      C2408   1.403       .  A
C2407      C2412   1.406       .  A
C2407      H2414   1.084       .  S
C2408      C2409   1.412       .  A
C2409      C2410   1.398       .  A
C2409      N2416   1.428       .  S
C2410      C2411   1.408       .  A
C2410      H2415   1.083       .  S
C2411      C2412   1.420       .  A
C2412      N2413   1.428       .  S
N2413      O2417   1.262       .  A
N2413      O2418   1.262       .  A
N2416      O2420   1.262       .  A
N2416      O2419   1.262       .  A
C2421      C2422   1.408       .  A
C2421      C2426   1.398       .  A
C2421      H2428   1.084       .  S
C2422      C2423   1.410       .  A
C2423      C2424   1.400       .  A
C2423      N2430   1.429       .  S
C2424      C2425   1.412       .  A
C2424      H2429   1.083       .  S
C2425      C2426   1.413       .  A
C2426      N2427   1.428       .  S
N2427      O2431   1.262       .  A
N2427      O2432   1.262       .  A
N2430      O2434   1.262       .  A
N2430      O2433   1.262       .  A
C2435      C2436   1.402       .  A
C2435      C2440   1.403       .  A
C2435      H2442   1.084       .  S
C2436      C2437   1.414       .  A
C2437      C2438   1.396       .  A
C2437      N2444   1.428       .  S
C2438      C2439   1.399       .  A
C2438      H2443   1.084       .  S
C2439      C2440   1.416       .  A
C2440      N2441   1.429       .  S
N2441      O2445   1.262       .  A
N2441      O2446   1.262       .  A
N2444      O2448   1.262       .  A
N2444      O2447   1.262       .  A
C2449      C2450   1.406       .  A
C2449      C2454   1.394   1_565  A
C2449      H2456   1.083       .  S
C2450      C2451   1.420       .  A
C2451      C2452   1.403   1_565  A
C2451      N2458   1.427       .  S
C2452      C2453   1.401       .  A
C2452      H2457   1.084       .  S
C2453      C2454   1.409       .  A
C2454      N2455   1.427       .  S
N2455      O2459   1.261       .  A
N2455      O2460   1.262       .  A
N2458      O2462   1.262       .  A
N2458      O2461   1.262       .  A
C2463      C2464   1.405       .  A
C2463      C2468   1.395       .  A
C2463      H2470   1.084       .  S
C2464      C2465   1.418       .  A
C2465      C2466   1.404       .  A
C2465      N2472   1.429       .  S
C2466      C2467   1.405       .  A
C2466      H2471   1.084       .  S
C2467      C2468   1.412       .  A
C2468      N2469   1.428       .  S
N2469      O2473   1.262       .  A
N2469      O2474   1.262       .  A
N2472      O2476   1.262       .  A
N2472      O2475   1.262       .  A
C2477      C2478   1.409       .  A
C2477      C2482   1.395       .  A
C2477      H2484   1.083       .  S
C2478      C2479   1.418       .  A
C2479      C2480   1.408       .  A
C2479      N2486   1.427       .  S
C2480      C2481   1.405       .  A
C2480      H2485   1.084       .  S
C2481      C2482   1.409       .  A
C2482      N2483   1.429       .  S
N2483      O2487   1.261       .  A
N2483      O2488   1.262       .  A
N2486      O2490   1.262       .  A
N2486      O2489   1.262       .  A
C2491      C2492   1.404       .  A
C2491      C2496   1.394   1_565  A
C2491      H2498   1.084       .  S
C2492      C2493   1.416       .  A
C2493      C2494   1.403   1_565  A
C2493      N2500   1.427       .  S
C2494      C2495   1.403       .  A
C2494      H2499   1.084       .  S
C2495      C2496   1.413       .  A
C2496      N2497   1.428       .  S
N2497      O2501   1.262       .  A
N2497      O2502   1.262       .  A
N2500      O2504   1.262       .  A
N2500      O2503   1.262       .  A
C2505      C2506   1.404       .  A
C2505      C2510   1.398       .  A
C2505      H2512   1.084       .  S
C2506      C2507   1.411       .  A
C2507      C2508   1.394       .  A
C2507      N2514   1.429       .  S
C2508      C2509   1.405       .  A
C2508      H2513   1.084       .  S
C2509      C2510   1.414       .  A
C2510      N2511   1.429       .  S
N2511      O2515   1.262       .  A
N2511      O2516   1.262       .  A
N2514      O2518   1.262       .  A
N2514      O2517   1.262       .  A
C2519      C2520   1.409       .  A
C2519      C2524   1.399       .  A
C2519      H2526   1.084       .  S
C2520      C2521   1.412       .  A
C2521      C2522   1.400       .  A
C2521      N2528   1.428       .  S
C2522      C2523   1.408       .  A
C2522      H2527   1.084       .  S
C2523      C2524   1.412       .  A
C2524      N2525   1.429       .  S
N2525      O2529   1.262       .  A
N2525      O2530   1.262       .  A
N2528      O2532   1.262       .  A
N2528      O2531   1.262       .  A
C2533      C2534   1.404       .  A
C2533      C2538   1.400       .  A
C2533      H2540   1.084       .  S
C2534      C2535   1.410       .  A
C2535      C2536   1.399       .  A
C2535      N2542   1.428       .  S
C2536      C2537   1.406       .  A
C2536      H2541   1.084       .  S
C2537      C2538   1.413       .  A
C2538      N2539   1.428       .  S
N2539      O2543   1.262       .  A
N2539      O2544   1.262       .  A
N2542      O2546   1.262       .  A
N2542      O2545   1.262       .  A
C2547      C2548   1.404       .  A
C2547      C2552   1.405       .  A
C2547      H2554   1.084       .  S
C2548      C2549   1.412       .  A
C2549      C2550   1.397       .  A
C2549      N2556   1.428       .  S
C2550      C2551   1.406       .  A
C2550      H2555   1.083       .  S
C2551      C2552   1.418       .  A
C2552      N2553   1.428       .  S
N2553      O2557   1.262   1_556  A
N2553      O2558   1.262       .  A
N2556      O2560   1.262       .  A
N2556      O2559   1.262       .  A
C2561      C2562   1.406       .  A
C2561      C2566   1.396       .  A
C2561      H2568   1.083       .  S
C2562      C2563   1.419       .  A
C2563      C2564   1.409       .  A
C2563      N2570   1.428       .  S
C2564      C2565   1.407       .  A
C2564      H2569   1.084       .  S
C2565      C2566   1.415       .  A
C2566      N2567   1.429       .  S
N2567      O2571   1.262       .  A
N2567      O2572   1.262       .  A
N2570      O2574   1.262       .  A
N2570      O2573   1.262       .  A
C2575      C2576   1.407       .  A
C2575      C2580   1.398       .  A
C2575      H2582   1.083       .  S
C2576      C2577   1.419       .  A
C2577      C2578   1.408       .  A
C2577      N2584   1.428       .  S
C2578      C2579   1.407       .  A
C2578      H2583   1.084       .  S
C2579      C2580   1.414       .  A
C2580      N2581   1.428       .  S
N2581      O2585   1.262       .  A
N2581      O2586   1.262       .  A
N2584      O2588   1.262       .  A
N2584      O2587   1.262       .  A
C2589      C2590   1.402       .  A
C2589      C2594   1.404       .  A
C2589      H2596   1.084       .  S
C2590      C2591   1.418       .  A
C2591      C2592   1.402       .  A
C2591      N2598   1.429       .  S
C2592      C2593   1.402       .  A
C2592      H2597   1.084       .  S
C2593      C2594   1.419       .  A
C2594      N2595   1.428       .  S
N2595      O2599   1.262       .  A
N2595      O2600   1.262       .  A
N2598      O2602   1.262       .  A
N2598      O2601   1.262       .  A
C2603      C2604   1.405       .  A
C2603      C2608   1.399       .  A
C2603      H2610   1.084       .  S
C2604      C2605   1.412       .  A
C2605      C2606   1.401       .  A
C2605      N2612   1.428       .  S
C2606      C2607   1.407       .  A
C2606      H2611   1.084       .  S
C2607      C2608   1.413       .  A
C2608      N2609   1.428       .  S
N2609      O2613   1.262       .  A
N2609      O2614   1.262       .  A
N2612      O2616   1.262       .  A
N2612      O2615   1.262       .  A
C2617      C2618   1.406       .  A
C2617      C2622   1.407       .  A
C2617      H2624   1.084       .  S
C2618      C2619   1.413       .  A
C2619      C2620   1.400       .  A
C2619      N2626   1.429       .  S
C2620      C2621   1.408       .  A
C2620      H2625   1.082       .  S
C2621      C2622   1.418       .  A
C2622      N2623   1.427       .  S
N2623      O2627   1.262       .  A
N2623      O2628   1.262       .  A
N2626      O2630   1.261       .  A
N2626      O2629   1.262       .  A
C2631      C2632   1.401       .  A
C2631      C2636   1.403       .  A
C2631      H2638   1.084       .  S
C2632      C2633   1.412       .  A
C2633      C2634   1.396       .  A
C2633      N2640   1.428       .  S
C2634      C2635   1.406       .  A
C2634      H2639   1.084       .  S
C2635      C2636   1.419       .  A
C2636      N2637   1.427       .  S
N2637      O2641   1.262       .  A
N2637      O2642   1.262       .  A
N2640      O2644   1.262       .  A
N2640      O2643   1.262       .  A
C2645      C2646   1.404       .  A
C2645      C2650   1.401       .  A
C2645      H2652   1.084       .  S
C2646      C2647   1.410       .  A
C2647      C2648   1.396       .  A
C2647      N2654   1.429       .  S
C2648      C2649   1.408       .  A
C2648      H2653   1.084       .  S
C2649      C2650   1.416       .  A
C2650      N2651   1.427       .  S
N2651      O2655   1.262       .  A
N2651      O2656   1.262       .  A
N2654      O2658   1.262       .  A
N2654      O2657   1.262       .  A
C2659      C2660   1.405       .  A
C2659      C2664   1.405       .  A
C2659      H2666   1.084       .  S
C2660      C2661   1.412       .  A
C2661      C2662   1.398       .  A
C2661      N2668   1.428       .  S
C2662      C2663   1.408       .  A
C2662      H2667   1.083       .  S
C2663      C2664   1.418       .  A
C2664      N2665   1.428       .  S
N2665      O2669   1.262       .  A
N2665      O2670   1.262       .  A
N2668      O2672   1.262       .  A
N2668      O2671   1.261       .  A
C2673      C2674   1.407       .  A
C2673      C2678   1.408       .  A
C2673      H2680   1.084       .  S
C2674      C2675   1.414       .  A
C2675      C2676   1.397       .  A
C2675      N2682   1.428       .  S
C2676      C2677   1.405       .  A
C2676      H2681   1.082       .  S
C2677      C2678   1.418       .  A
C2678      N2679   1.428       .  S
N2679      O2683   1.262       .  A
N2679      O2684   1.262       .  A
N2682      O2686   1.261       .  A
N2682      O2685   1.262   1_554  A
C2687      C2688   1.403       .  A
C2687      C2692   1.408       .  A
C2687      H2694   1.084   1_554  S
C2688      C2689   1.412       .  A
C2689      C2690   1.395       .  A
C2689      N2696   1.428       .  S
C2690      C2691   1.407       .  A
C2690      H2695   1.083       .  S
C2691      C2692   1.421       .  A
C2692      N2693   1.427   1_554  S
N2693      O2697   1.262       .  A
N2693      O2698   1.262   1_556  A
N2696      O2700   1.262       .  A
N2696      O2699   1.262       .  A
C2701      C2702   1.402   1_554  A
C2701      C2706   1.397       .  A
C2701      H2708   1.084       .  S
C2702      C2703   1.418       .  A
C2703      C2704   1.398       .  A
C2703      N2710   1.429       .  S
C2704      C2705   1.401       .  A
C2704      H2709   1.084       .  S
C2705      C2706   1.415   1_556  A
C2706      N2707   1.428       .  S
N2707      O2711   1.262       .  A
N2707      O2712   1.262   1_554  A
N2710      O2714   1.262       .  A
N2710      O2713   1.262   1_556  A
C2715      C2716   1.402       .  A
C2715      C2720   1.403       .  A
C2715      H2722   1.084       .  S
C2716      C2717   1.416       .  A
C2717      C2718   1.398       .  A
C2717      N2724   1.428       .  S
C2718      C2719   1.400       .  A
C2718      H2723   1.084       .  S
C2719      C2720   1.417       .  A
C2720      N2721   1.428       .  S
N2721      O2725   1.262       .  A
N2721      O2726   1.262       .  A
N2724      O2728   1.262       .  A
N2724      O2727   1.262       .  A
C2729      C2730   1.404       .  A
C2729      C2734   1.396       .  A
C2729      H2736   1.084       .  S
C2730      C2731   1.412       .  A
C2731      C2732   1.401       .  A
C2731      N2738   1.429       .  S
C2732      C2733   1.408       .  A
C2732      H2737   1.084       .  S
C2733      C2734   1.412       .  A
C2734      N2735   1.428       .  S
N2735      O2739   1.262       .  A
N2735      O2740   1.262       .  A
N2738      O2742   1.262       .  A
N2738      O2741   1.262       .  A
C2743      C2744   1.409       .  A
C2743      C2748   1.406       .  A
C2743      H2750   1.084       .  S
C2744      C2745   1.417       .  A
C2745      C2746   1.392       .  A
C2745      N2752   1.428       .  S
C2746      C2747   1.404       .  A
C2746      H2751   1.084       .  S
C2747      C2748   1.415       .  A
C2748      N2749   1.428       .  S
N2749      O2753   1.262       .  A
N2749      O2754   1.262       .  A
N2752      O2756   1.262       .  A
N2752      O2755   1.262       .  A
C2757      C2758   1.407       .  A
C2757      C2762   1.414       .  A
C2757      H2764   1.084       .  S
C2758      C2759   1.404       .  A
C2759      C2760   1.389       .  A
C2759      N2766   1.428       .  S
C2760      C2761   1.407       .  A
C2760      H2765   1.080       .  S
C2761      C2762   1.419       .  A
C2762      N2763   1.428       .  S
N2763      O2767   1.262       .  A
N2763      O2768   1.262       .  A
N2766      O2770   1.262       .  A
N2766      O2769   1.262       .  A
C2771      C2772   1.403       .  A
C2771      C2776   1.401   1_455  A
C2771      H2778   1.084       .  S
C2772      C2773   1.410       .  A
C2773      C2774   1.395   1_455  A
C2773      N2780   1.428       .  S
C2774      C2775   1.406       .  A
C2774      H2779   1.084       .  S
C2775      C2776   1.418       .  A
C2776      N2777   1.428       .  S
N2777      O2781   1.262       .  A
N2777      O2782   1.262       .  A
N2780      O2784   1.262       .  A
N2780      O2783   1.262       .  A
C2785      C2786   1.401       .  A
C2785      C2790   1.394   1_565  A
C2785      H2792   1.085       .  S
C2786      C2787   1.410       .  A
C2787      C2788   1.400   1_565  A
C2787      N2794   1.428       .  S
C2788      C2789   1.406       .  A
C2788      H2793   1.083       .  S
C2789      C2790   1.416       .  A
C2790      N2791   1.429       .  S
N2791      O2795   1.262       .  A
N2791      O2796   1.262       .  A
N2794      O2798   1.262       .  A
N2794      O2797   1.262       .  A
C2799      C2800   1.392       .  A
C2799      C2804   1.394       .  A
C2799      H2806   1.085       .  S
C2800      C2801   1.416       .  A
C2801      C2802   1.397       .  A
C2801      N2808   1.426       .  S
C2802      C2803   1.394       .  A
C2802      H2807   1.084       .  S
C2803      C2804   1.416       .  A
C2804      N2805   1.425       .  S
N2805      O2809   1.261       .  A
N2805      O2810   1.262       .  A
N2808      O2812   1.261       .  A
N2808      O2811   1.262       .  A
C2813      C2814   1.405       .  A
C2813      C2818   1.401   1_455  A
C2813      H2820   1.084       .  S
C2814      C2815   1.414       .  A
C2815      C2816   1.394   1_455  A
C2815      N2822   1.428       .  S
C2816      C2817   1.400       .  A
C2816      H2821   1.084       .  S
C2817      C2818   1.415       .  A
C2818      N2819   1.429       .  S
N2819      O2823   1.262       .  A
N2819      O2824   1.262       .  A
N2822      O2826   1.262       .  A
N2822      O2825   1.262       .  A
C2827      C2828   1.411       .  A
C2827      C2832   1.396   1_565  A
C2827      H2834   1.084       .  S
C2828      C2829   1.415       .  A
C2829      C2830   1.403   1_565  A
C2829      N2836   1.427       .  S
C2830      C2831   1.403       .  A
C2830      H2835   1.084       .  S
C2831      C2832   1.408       .  A
C2832      N2833   1.429       .  S
N2833      O2837   1.262       .  A
N2833      O2838   1.262       .  A
N2836      O2840   1.262       .  A
N2836      O2839   1.262       .  A
C2841      C2842   1.400       .  A
C2841      C2846   1.399       .  A
C2841      H2848   1.084       .  S
C2842      C2843   1.421       .  A
C2843      C2844   1.403       .  A
C2843      N2850   1.430       .  S
C2844      C2845   1.404       .  A
C2844      H2849   1.084       .  S
C2845      C2846   1.421       .  A
C2846      N2847   1.428       .  S
N2847      O2851   1.262       .  A
N2847      O2852   1.262       .  A
N2850      O2854   1.262       .  A
N2850      O2853   1.262       .  A
C2855      C2856   1.401       .  A
C2855      C2860   1.395       .  A
C2855      H2862   1.084       .  S
C2856      C2857   1.422       .  A
C2857      C2858   1.397       .  A
C2857      N2864   1.429       .  S
C2858      C2859   1.400       .  A
C2858      H2863   1.084       .  S
C2859      C2860   1.420       .  A
C2860      N2861   1.429       .  S
N2861      O2865   1.262       .  A
N2861      O2866   1.262       .  A
N2864      O2868   1.262       .  A
N2864      O2867   1.262       .  A
C2869      C2870   1.408       .  A
C2869      C2874   1.398       .  A
C2869      H2876   1.085       .  S
C2870      C2871   1.404       .  A
C2871      C2872   1.398       .  A
C2871      N2878   1.428   1_556  S
C2872      C2873   1.406       .  A
C2872      H2877   1.084       .  S
C2873      C2874   1.404       .  A
C2874      N2875   1.428       .  S
N2875      O2879   1.262       .  A
N2875      O2880   1.262       .  A
N2878      O2882   1.262       .  A
N2878      O2881   1.262       .  A
C2883      C2884   1.405       .  A
C2883      C2888   1.397   1_455  A
C2883      H2890   1.084       .  S
C2884      C2885   1.415       .  A
C2885      C2886   1.403   1_455  A
C2885      N2892   1.428       .  S
C2886      C2887   1.406       .  A
C2886      H2891   1.084       .  S
C2887      C2888   1.413       .  A
C2888      N2889   1.429       .  S
N2889      O2893   1.262       .  A
N2889      O2894   1.262       .  A
N2892      O2896   1.261       .  A
N2892      O2895   1.262       .  A
C2897      C2898   1.406       .  A
C2897      C2902   1.396       .  A
C2897      H2904   1.084       .  S
C2898      C2899   1.419       .  A
C2899      C2900   1.404       .  A
C2899      N2906   1.428       .  S
C2900      C2901   1.401       .  A
C2900      H2905   1.084       .  S
C2901      C2902   1.412       .  A
C2902      N2903   1.429       .  S
N2903      O2907   1.262       .  A
N2903      O2908   1.262       .  A
N2906      O2910   1.262   1_554  A
N2906      O2909   1.262       .  A
C2911      C2912   1.407       .  A
C2911      C2916   1.396       .  A
C2911      H2918   1.084       .  S
C2912      C2913   1.405       .  A
C2913      C2914   1.399       .  A
C2913      N2920   1.428       .  S
C2914      C2915   1.406       .  A
C2914      H2919   1.084       .  S
C2915      C2916   1.403       .  A
C2916      N2917   1.428       .  S
N2917      O2921   1.262       .  A
N2917      O2922   1.262       .  A
N2920      O2924   1.262       .  A
N2920      O2923   1.262       .  A
C2925      C2926   1.405       .  A
C2925      C2930   1.401   1_455  A
C2925      H2932   1.083       .  S
C2926      C2927   1.415       .  A
C2927      C2928   1.397   1_455  A
C2927      N2934   1.429       .  S
C2928      C2929   1.404       .  A
C2928      H2933   1.084       .  S
C2929      C2930   1.414       .  A
C2930      N2931   1.428       .  S
N2931      O2935   1.262       .  A
N2931      O2936   1.262       .  A
N2934      O2938   1.262       .  A
N2934      O2937   1.262       .  A
C2939      C2940   1.402       .  A
C2939      C2944   1.400       .  A
C2939      H2946   1.084       .  S
C2940      C2941   1.420       .  A
C2941      C2942   1.401       .  A
C2941      N2948   1.429       .  S
C2942      C2943   1.400       .  A
C2942      H2947   1.084       .  S
C2943      C2944   1.415       .  A
C2944      N2945   1.428       .  S
N2945      O2949   1.262       .  A
N2945      O2950   1.262       .  A
N2948      O2952   1.262       .  A
N2948      O2951   1.262       .  A
C2953      C2954   1.409       .  A
C2953      C2958   1.397       .  A
C2953      H2960   1.084       .  S
C2954      C2955   1.412       .  A
C2955      C2956   1.400       .  A
C2955      N2962   1.429       .  S
C2956      C2957   1.411       .  A
C2956      H2961   1.084       .  S
C2957      C2958   1.412       .  A
C2958      N2959   1.428       .  S
N2959      O2963   1.262       .  A
N2959      O2964   1.262       .  A
N2962      O2966   1.262       .  A
N2962      O2965   1.262       .  A
C2967      C2968   1.408       .  A
C2967      C2972   1.404       .  A
C2967      H2974   1.083       .  S
C2968      C2969   1.420       .  A
C2969      C2970   1.397       .  A
C2969      N2976   1.428       .  S
C2970      C2971   1.401       .  A
C2970      H2975   1.084       .  S
C2971      C2972   1.413       .  A
C2972      N2973   1.428       .  S
N2973      O2977   1.262       .  A
N2973      O2978   1.262       .  A
N2976      O2980   1.262       .  A
N2976      O2979   1.262       .  A
C2981      C2982   1.409       .  A
C2981      C2986   1.411       .  A
C2981      H2988   1.084       .  S
C2982      C2983   1.415       .  A
C2983      C2984   1.399       .  A
C2983      N2990   1.428       .  S
C2984      C2985   1.407       .  A
C2984      H2989   1.083       .  S
C2985      C2986   1.418       .  A
C2986      N2987   1.428       .  S
N2987      O2991   1.262       .  A
N2987      O2992   1.262       .  A
N2990      O2994   1.261       .  A
N2990      O2993   1.262       .  A
C2995      C2996   1.407       .  A
C2995      C3000   1.399       .  A
C2995      H3002   1.084       .  S
C2996      C2997   1.422       .  A
C2997      C2998   1.405       .  A
C2997      N3004   1.427       .  S
C2998      C2999   1.401       .  A
C2998      H3003   1.084       .  S
C2999      C3000   1.412       .  A
C3000      N3001   1.428       .  S
N3001      O3005   1.262       .  A
N3001      O3006   1.262       .  A
N3004      O3008   1.262       .  A
N3004      O3007   1.262       .  A
C3009      C3010   1.405       .  A
C3009      C3014   1.398       .  A
C3009      H3016   1.082       .  S
C3010      C3011   1.418       .  A
C3011      C3012   1.405       .  A
C3011      N3018   1.428       .  S
C3012      C3013   1.406       .  A
C3012      H3017   1.084       .  S
C3013      C3014   1.416       .  A
C3014      N3015   1.428       .  S
N3015      O3019   1.262       .  A
N3015      O3020   1.262       .  A
N3018      O3022   1.262       .  A
N3018      O3021   1.262       .  A
C3023      C3024   1.404       .  A
C3023      C3028   1.397       .  A
C3023      H3030   1.084       .  S
C3024      C3025   1.419       .  A
C3025      C3026   1.406       .  A
C3025      N3032   1.427       .  S
C3026      C3027   1.403       .  A
C3026      H3031   1.084       .  S
C3027      C3028   1.416       .  A
C3028      N3029   1.428       .  S
N3029      O3033   1.262       .  A
N3029      O3034   1.262       .  A
N3032      O3036   1.262       .  A
N3032      O3035   1.262       .  A
C3037      C3038   1.401       .  A
C3037      C3042   1.402       .  A
C3037      H3044   1.084       .  S
C3038      C3039   1.419       .  A
C3039      C3040   1.400       .  A
C3039      N3046   1.429       .  S
C3040      C3041   1.401       .  A
C3040      H3045   1.084       .  S
C3041      C3042   1.420       .  A
C3042      N3043   1.429       .  S
N3043      O3047   1.262       .  A
N3043      O3048   1.262       .  A
N3046      O3050   1.262       .  A
N3046      O3049   1.262       .  A
C3051      C3052   1.407       .  A
C3051      C3056   1.399       .  A
C3051      H3058   1.084       .  S
C3052      C3053   1.411       .  A
C3053      C3054   1.399       .  A
C3053      N3060   1.429       .  S
C3054      C3055   1.407       .  A
C3054      H3059   1.084       .  S
C3055      C3056   1.413       .  A
C3056      N3057   1.429       .  S
N3057      O3061   1.262       .  A
N3057      O3062   1.262       .  A
N3060      O3064   1.262       .  A
N3060      O3063   1.262       .  A
C3065      C3066   1.407       .  A
C3065      C3070   1.408       .  A
C3065      H3072   1.084       .  S
C3066      C3067   1.418       .  A
C3067      C3068   1.400       .  A
C3067      N3074   1.428       .  S
C3068      C3069   1.405       .  A
C3068      H3073   1.083       .  S
C3069      C3070   1.420       .  A
C3070      N3071   1.428       .  S
N3071      O3075   1.262       .  A
N3071      O3076   1.262       .  A
N3074      O3078   1.261       .  A
N3074      O3077   1.262       .  A
C3079      C3080   1.402       .  A
C3079      C3084   1.397       .  A
C3079      H3086   1.084       .  S
C3080      C3081   1.416       .  A
C3081      C3082   1.403       .  A
C3081      N3088   1.428       .  S
C3082      C3083   1.405       .  A
C3082      H3087   1.084       .  S
C3083      C3084   1.416       .  A
C3084      N3085   1.428       .  S
N3085      O3089   1.262       .  A
N3085      O3090   1.262       .  A
N3088      O3092   1.262       .  A
N3088      O3091   1.262       .  A
C3093      C3094   1.407       .  A
C3093      C3098   1.406       .  A
C3093      H3100   1.084       .  S
C3094      C3095   1.412       .  A
C3095      C3096   1.398       .  A
C3095      N3102   1.428       .  S
C3096      C3097   1.406       .  A
C3096      H3101   1.084       .  S
C3097      C3098   1.417       .  A
C3098      N3099   1.428       .  S
N3099      O3103   1.262       .  A
N3099      O3104   1.262       .  A
N3102      O3106   1.262       .  A
N3102      O3105   1.262       .  A
C3107      C3108   1.408       .  A
C3107      C3112   1.396       .  A
C3107      H3114   1.083       .  S
C3108      C3109   1.418       .  A
C3109      C3110   1.405       .  A
C3109      N3116   1.427       .  S
C3110      C3111   1.405       .  A
C3110      H3115   1.084       .  S
C3111      C3112   1.412       .  A
C3112      N3113   1.429       .  S
N3113      O3117   1.262       .  A
N3113      O3118   1.262       .  A
N3116      O3120   1.262       .  A
N3116      O3119   1.262       .  A
C3121      C3122   1.406       .  A
C3121      C3126   1.408       .  A
C3121      H3128   1.084       .  S
C3122      C3123   1.413       .  A
C3123      C3124   1.397       .  A
C3123      N3130   1.429       .  S
C3124      C3125   1.406       .  A
C3124      H3129   1.083       .  S
C3125      C3126   1.419       .  A
C3126      N3127   1.428       .  S
N3127      O3131   1.262       .  A
N3127      O3132   1.262       .  A
N3130      O3134   1.262       .  A
N3130      O3133   1.262   1_554  A
C3135      C3136   1.393       .  A
C3135      C3140   1.398       .  A
C3135      H3142   1.084       .  S
C3136      C3137   1.408   1_556  A
C3137      C3138   1.395       .  A
C3137      N3144   1.428       .  S
C3138      C3139   1.403   1_554  A
C3138      H3143   1.083       .  S
C3139      C3140   1.424       .  A
C3140      N3141   1.428       .  S
N3141      O3145   1.262       .  A
N3141      O3146   1.262       .  A
N3144      O3148   1.262       .  A
N3144      O3147   1.262       .  A
C3149      C3150   1.406       .  A
C3149      C3154   1.397       .  A
C3149      H3156   1.084       .  S
C3150      C3151   1.418       .  A
C3151      C3152   1.402       .  A
C3151      N3158   1.426       .  S
C3152      C3153   1.400       .  A
C3152      H3157   1.084   1_554  S
C3153      C3154   1.413       .  A
C3154      N3155   1.428       .  S
N3155      O3159   1.262       .  A
N3155      O3160   1.262       .  A
N3158      O3162   1.262       .  A
N3158      O3161   1.262   1_554  A
C3163      C3164   1.402       .  A
C3163      C3168   1.401       .  A
C3163      H3170   1.084       .  S
C3164      C3165   1.420       .  A
C3165      C3166   1.403       .  A
C3165      N3172   1.429       .  S
C3166      C3167   1.401       .  A
C3166      H3171   1.084       .  S
C3167      C3168   1.419       .  A
C3168      N3169   1.429       .  S
N3169      O3173   1.262       .  A
N3169      O3174   1.262       .  A
N3172      O3176   1.262       .  A
N3172      O3175   1.262       .  A
C3177      C3178   1.402       .  A
C3177      C3182   1.399       .  A
C3177      H3184   1.084       .  S
C3178      C3179   1.419       .  A
C3179      C3180   1.402       .  A
C3179      N3186   1.428       .  S
C3180      C3181   1.403       .  A
C3180      H3185   1.084       .  S
C3181      C3182   1.420       .  A
C3182      N3183   1.429       .  S
N3183      O3187   1.262       .  A
N3183      O3188   1.262       .  A
N3186      O3190   1.262       .  A
N3186      O3189   1.262       .  A
C3191      C3192   1.405       .  A
C3191      C3196   1.393       .  A
C3191      H3198   1.083       .  S
C3192      C3193   1.418       .  A
C3193      C3194   1.405       .  A
C3193      N3200   1.428       .  S
C3194      C3195   1.406       .  A
C3194      H3199   1.084       .  S
C3195      C3196   1.415       .  A
C3196      N3197   1.428       .  S
N3197      O3201   1.261       .  A
N3197      O3202   1.262       .  A
N3200      O3204   1.262       .  A
N3200      O3203   1.262       .  A
C3205      C3206   1.405       .  A
C3205      C3210   1.400       .  A
C3205      H3212   1.085       .  S
C3206      C3207   1.403       .  A
C3207      C3208   1.395       .  A
C3207      N3214   1.428       .  S
C3208      C3209   1.409       .  A
C3208      H3213   1.084       .  S
C3209      C3210   1.407       .  A
C3210      N3211   1.427       .  S
N3211      O3215   1.262       .  A
N3211      O3216   1.262       .  A
N3214      O3218   1.262       .  A
N3214      O3217   1.262       .  A
C3219      C3220   1.399       .  A
C3219      C3224   1.395   1_565  A
C3219      H3226   1.084       .  S
C3220      C3221   1.417       .  A
C3221      C3222   1.405   1_565  A
C3221      N3228   1.428       .  S
C3222      C3223   1.404       .  A
C3222      H3227   1.084       .  S
C3223      C3224   1.420       .  A
C3224      N3225   1.429       .  S
N3225      O3229   1.262       .  A
N3225      O3230   1.262       .  A
N3228      O3232   1.262       .  A
N3228      O3231   1.262       .  A
C3233      C3234   1.400       .  A
C3233      C3238   1.400   1_655  A
C3233      H3240   1.084       .  S
C3234      C3235   1.412   1_655  A
C3235      C3236   1.395       .  A
C3235      N3242   1.429   1_455  S
C3236      C3237   1.406       .  A
C3236      H3241   1.084       .  S
C3237      C3238   1.419       .  A
C3238      N3239   1.427       .  S
N3239      O3243   1.262       .  A
N3239      O3244   1.262       .  A
N3242      O3246   1.262       .  A
N3242      O3245   1.262       .  A
C3247      C3248   1.408       .  A
C3247      C3252   1.402       .  A
C3247      H3254   1.084       .  S
C3248      C3249   1.402       .  A
C3249      C3250   1.396       .  A
C3249      N3256   1.428       .  S
C3250      C3251   1.408       .  A
C3250      H3255   1.084       .  S
C3251      C3252   1.405       .  A
C3252      N3253   1.427       .  S
N3253      O3257   1.262       .  A
N3253      O3258   1.262       .  A
N3256      O3260   1.262       .  A
N3256      O3259   1.262       .  A
C3261      C3262   1.401       .  A
C3261      C3266   1.401   1_545  A
C3261      H3268   1.084       .  S
C3262      C3263   1.407       .  A
C3263      C3264   1.394   1_545  A
C3263      N3270   1.428       .  S
C3264      C3265   1.407       .  A
C3264      H3269   1.083       .  S
C3265      C3266   1.420       .  A
C3266      N3267   1.427       .  S
N3267      O3271   1.262       .  A
N3267      O3272   1.262       .  A
N3270      O3274   1.262       .  A
N3270      O3273   1.261       .  A
C3275      C3276   1.405       .  A
C3275      C3280   1.400   1_455  A
C3275      H3282   1.084       .  S
C3276      C3277   1.414       .  A
C3277      C3278   1.393   1_455  A
C3277      N3284   1.430       .  S
C3278      C3279   1.405       .  A
C3278      H3283   1.084       .  S
C3279      C3280   1.412       .  A
C3280      N3281   1.427       .  S
N3281      O3285   1.262       .  A
N3281      O3286   1.262       .  A
N3284      O3288   1.262       .  A
N3284      O3287   1.262       .  A
C3289      C3290   1.402       .  A
C3289      C3294   1.401       .  A
C3289      H3296   1.085       .  S
C3290      C3291   1.411       .  A
C3291      C3292   1.396       .  A
C3291      N3298   1.428       .  S
C3292      C3293   1.403       .  A
C3292      H3297   1.084       .  S
C3293      C3294   1.415       .  A
C3294      N3295   1.429       .  S
N3295      O3299   1.262       .  A
N3295      O3300   1.262       .  A
N3298      O3302   1.262       .  A
N3298      O3301   1.262       .  A
C3303      C3304   1.405       .  A
C3303      C3308   1.400       .  A
C3303      H3310   1.084       .  S
C3304      C3305   1.413       .  A
C3305      C3306   1.403       .  A
C3305      N3312   1.428       .  S
C3306      C3307   1.404       .  A
C3306      H3311   1.084       .  S
C3307      C3308   1.412       .  A
C3308      N3309   1.429       .  S
N3309      O3313   1.262       .  A
N3309      O3314   1.262       .  A
N3312      O3316   1.262       .  A
N3312      O3315   1.262       .  A
C3317      C3318   1.396       .  A
C3317      C3322   1.399       .  A
C3317      H3324   1.084   1_556  S
C3318      C3319   1.416       .  A
C3319      C3320   1.396       .  A
C3319      N3326   1.426       .  S
C3320      C3321   1.393       .  A
C3320      H3325   1.084       .  S
C3321      C3322   1.416       .  A
C3322      N3323   1.426   1_556  S
N3323      O3327   1.261       .  A
N3323      O3328   1.262       .  A
N3326      O3330   1.261       .  A
N3326      O3329   1.261       .  A
C3331      C3332   1.403       .  A
C3331      C3336   1.402       .  A
C3331      H3338   1.084       .  S
C3332      C3333   1.416       .  A
C3333      C3334   1.392       .  A
C3333      N3340   1.429       .  S
C3334      C3335   1.401       .  A
C3334      H3339   1.084       .  S
C3335      C3336   1.415       .  A
C3336      N3337   1.427       .  S
N3337      O3341   1.261       .  A
N3337      O3342   1.262       .  A
N3340      O3344   1.262       .  A
N3340      O3343   1.262       .  A
C3345      C3346   1.402   1_455  A
C3345      C3350   1.393       .  A
C3345      H3352   1.084   1_455  S
C3346      C3347   1.414   1_655  A
C3347      C3348   1.400       .  A
C3347      N3354   1.428   1_455  S
C3348      C3349   1.406       .  A
C3348      H3353   1.084       .  S
C3349      C3350   1.413       .  A
C3350      N3351   1.428       .  S
N3351      O3355   1.262       .  A
N3351      O3356   1.262       .  A
N3354      O3358   1.262       .  A
N3354      O3357   1.262       .  A
C3359      C3360   1.409       .  A
C3359      C3364   1.406       .  A
C3359      H3366   1.083       .  S
C3360      C3361   1.418       .  A
C3361      C3362   1.391       .  A
C3361      N3368   1.427       .  S
C3362      C3363   1.400       .  A
C3362      H3367   1.084       .  S
C3363      C3364   1.415       .  A
C3364      N3365   1.428       .  S
N3365      O3369   1.262       .  A
N3365      O3370   1.262       .  A
N3368      O3372   1.262       .  A
N3368      O3371   1.262       .  A
C3373      C3374   1.407       .  A
C3373      C3378   1.401       .  A
C3373      H3380   1.084       .  S
C3374      C3375   1.404       .  A
C3375      C3376   1.397       .  A
C3375      N3382   1.428       .  S
C3376      C3377   1.408       .  A
C3376      H3381   1.084       .  S
C3377      C3378   1.407       .  A
C3378      N3379   1.427       .  S
N3379      O3383   1.262       .  A
N3379      O3384   1.262       .  A
N3382      O3386   1.262       .  A
N3382      O3385   1.262       .  A
C3387      C3388   1.400       .  A
C3387      C3392   1.398       .  A
C3387      H3394   1.085       .  S
C3388      C3389   1.409       .  A
C3389      C3390   1.400       .  A
C3389      N3396   1.428       .  S
C3390      C3391   1.409       .  A
C3390      H3395   1.083       .  S
C3391      C3392   1.420       .  A
C3392      N3393   1.428       .  S
N3393      O3397   1.262       .  A
N3393      O3398   1.262       .  A
N3396      O3400   1.262       .  A
N3396      O3399   1.262       .  A
C3401      C3402   1.403       .  A
C3401      C3406   1.405   1_655  A
C3401      H3408   1.084       .  S
C3402      C3403   1.409   1_655  A
C3403      C3404   1.394       .  A
C3403      N3410   1.429   1_455  S
C3404      C3405   1.408       .  A
C3404      H3409   1.084       .  S
C3405      C3406   1.419       .  A
C3406      N3407   1.428       .  S
N3407      O3411   1.262       .  A
N3407      O3412   1.262       .  A
N3410      O3414   1.262       .  A
N3410      O3413   1.262       .  A
C3415      C3416   1.402       .  A
C3415      C3420   1.404       .  A
C3415      H3422   1.084       .  S
C3416      C3417   1.416       .  A
C3417      C3418   1.402       .  A
C3417      N3424   1.429       .  S
C3418      C3419   1.403       .  A
C3418      H3423   1.084       .  S
C3419      C3420   1.417       .  A
C3420      N3421   1.428       .  S
N3421      O3425   1.262       .  A
N3421      O3426   1.262       .  A
N3424      O3428   1.262       .  A
N3424      O3427   1.262       .  A
C3429      C3430   1.402       .  A
C3429      C3434   1.402       .  A
C3429      H3436   1.084       .  S
C3430      C3431   1.420       .  A
C3431      C3432   1.401       .  A
C3431      N3438   1.429       .  S
C3432      C3433   1.400       .  A
C3432      H3437   1.084       .  S
C3433      C3434   1.418       .  A
C3434      N3435   1.429       .  S
N3435      O3439   1.262       .  A
N3435      O3440   1.262       .  A
N3438      O3442   1.262       .  A
N3438      O3441   1.262       .  A
C3443      C3444   1.400       .  A
C3443      C3448   1.399       .  A
C3443      H3450   1.084       .  S
C3444      C3445   1.408       .  A
C3445      C3446   1.388       .  A
C3445      N3452   1.429       .  S
C3446      C3447   1.404       .  A
C3446      H3451   1.083       .  S
C3447      C3448   1.418       .  A
C3448      N3449   1.429       .  S
N3449      O3453   1.262       .  A
N3449      O3454   1.262       .  A
N3452      O3456   1.262       .  A
N3452      O3455   1.262       .  A
