geometry optimzed in LAMMPS
_audit_creation_date              2020-12-01 
_audit_creation_method            'lammps2cif' 
_symmetry_space_group_name_H-M    'P1' 
_symmetry_Int_Tables_number       1 
_symmetry_cell_setting            triclinic 
loop_ 
_symmetry_equiv_pos_as_xyz 
  x,y,z 
_cell_length_a                    46.88464717 
_cell_length_b                    46.76793507190436 
_cell_length_c                    28.39014964907622 
_cell_angle_alpha                 89.9487852889763 
_cell_angle_beta                  89.87745713041942 
_cell_angle_gamma                 90.05673925268322 
loop_ 
_atom_site_label 
_atom_site_type_symbol 
_atom_site_fract_x 
_atom_site_fract_y 
_atom_site_fract_z 
_atom_site_charge 
O1          O  0.71084709  0.48528030  0.79555428    -0.85100
O2          O  0.74279026  0.45963868  0.72678449    -0.82100
C3          C  0.74238026  0.43340238  0.73892235     0.98400
O4          O  0.72019072  0.41856322  0.73366819    -0.82200
O5          O  0.66410091  0.40325576  0.72287300    -0.84800
C6          C  0.65379469  0.40455296  0.76394882     1.02900
O7          O  0.65307943  0.42800308  0.78549019    -0.77600
O8          O  0.66433693  0.48392624  0.80698564    -0.77800
C9          C  0.68954757  0.48655128  0.82249932     1.02800
O10         O  0.68212999  0.52131611  0.72922245    -0.85100
O11         O  0.71061206  0.49316725  0.65689919    -0.82200
C12         C  0.72013874  0.47350538  0.63109081     0.98400
O13         O  0.71940675  0.44793586  0.64531846    -0.82200
O14         O  0.66068183  0.43967601  0.64220605    -0.84800
C15         C  0.63477836  0.44033036  0.65447160     1.02900
O16         O  0.62779973  0.44439419  0.69715340    -0.77600
O17         O  0.64152278  0.49964354  0.71543960    -0.77800
C18         C  0.65614239  0.52212832  0.71722742     1.02800
Cr19       Cr  0.70956420  0.48782234  0.72649821     1.93700
Cr20       Cr  0.69061041  0.42972335  0.68851271     1.93200
Cr21       Cr  0.64940097  0.46398395  0.74933636     1.39100
O22         O  0.68316665  0.46058814  0.72206640    -1.22900
O23         O  0.73053316  0.46037518  0.22421166    -0.85100
O24         O  0.76141152  0.48622293  0.29392560    -0.82100
C25         C  0.78225544  0.48732543  0.32169962     0.98400
O26         O  0.80770655  0.48454117  0.30707383    -0.82200
O27         O  0.81984332  0.42909684  0.28280138    -0.84800
C28         C  0.82057422  0.40620243  0.25965072     1.02900
O29         O  0.81039853  0.40539297  0.21855715    -0.77600
O30         O  0.75375900  0.41956618  0.22971159    -0.77800
C31         C  0.73122393  0.43388042  0.23491595     1.02800
O32         O  0.76282538  0.49524006  0.15572881    -0.85100
O33         O  0.79042639  0.52315581  0.22872846    -0.82200
C34         C  0.81664484  0.52433396  0.21788487     0.98400
O35         O  0.83157411  0.50209696  0.21661451    -0.82200
O36         O  0.84578840  0.44731762  0.19568446    -0.84800
C37         C  0.83913111  0.44345147  0.15282469     1.02900
O38         O  0.81335142  0.44324754  0.14003102    -0.77600
O39         O  0.75444091  0.45008775  0.14289969    -0.77800
C40         C  0.75342335  0.47576984  0.12950327     1.02800
Cr41       Cr  0.76337579  0.48924220  0.22504457     1.93700
Cr42       Cr  0.82354104  0.46578912  0.24859572     1.93200
Cr43       Cr  0.78341015  0.43193168  0.18546074     1.39100
O44         O  0.79012625  0.46242497  0.22037549    -1.22900
O45         O  0.98063194  0.21588437  0.28697304    -0.85100
O46         O  0.95555618  0.24808016  0.35626552    -0.82100
C47         C  0.92940139  0.24770039  0.34435503     0.98400
O48         O  0.91473965  0.22524615  0.34890669    -0.82200
O49         O  0.90005718  0.16832750  0.35984471    -0.84800
C50         C  0.90190962  0.15721583  0.31940033     1.02900
O51         O  0.92534693  0.15715156  0.29787295    -0.77600
O52         O  0.98084663  0.16920390  0.27641344    -0.77800
C53         C  0.98231544  0.19447335  0.26025121     1.02800
O54         O  0.01743933  0.18774665  0.35303366    -0.85100
O55         O  0.98925147  0.21644807  0.42578563    -0.82200
C56         C  0.96934891  0.22576283  0.45142100     0.98400
O57         O  0.94386591  0.22436234  0.43723302    -0.82200
O58         O  0.93601273  0.16577110  0.44086668    -0.84800
C59         C  0.93694088  0.13977177  0.42910770     1.02900
O60         O  0.94142310  0.13254372  0.38671956    -0.77600
O61         O  0.99644220  0.14702726  0.36908922    -0.77800
C62         C  0.01866680  0.16190785  0.36625595     1.02800
Cr63       Cr  0.98377516  0.21494473  0.35609474     1.93700
Cr64       Cr  0.92597058  0.19545893  0.39417319     1.93200
Cr65       Cr  0.96099796  0.15421194  0.33443582     1.39100
O66         O  0.95695871  0.18818136  0.36102448    -1.22900
O67         O  0.95519609  0.23478783  0.85621619    -0.85100
O68         O  0.97974275  0.26737851  0.78660029    -0.82100
C69         C  0.98132464  0.28893522  0.76013313     0.98400
O70         O  0.97933597  0.31411417  0.77647173    -0.82200
O71         O  0.92390249  0.32542732  0.80063203    -0.84800
C72         C  0.90074884  0.32498126  0.82306127     1.02900
O73         O  0.89968424  0.31413588  0.86379980    -0.77600
O74         O  0.91431335  0.25769977  0.85150833    -0.77800
C75         C  0.92874002  0.23524130  0.84611462     1.02800
O76         O  0.98992451  0.26635122  0.92468370    -0.85100
O77         O  0.01708045  0.29531221  0.85201574    -0.82200
C78         C  0.01832572  0.32102647  0.86580311     0.98400
O79         O  0.99612905  0.33593065  0.86870935    -0.82200
O80         O  0.94126964  0.34987272  0.88902910    -0.84800
C81         C  0.93747334  0.34245806  0.93158581     1.02900
O82         O  0.93715007  0.31641127  0.94318899    -0.77600
O83         O  0.94491780  0.25771454  0.93836323    -0.77800
C84         C  0.97063898  0.25676858  0.95125983     1.02800
Cr85       Cr  0.98350531  0.26798731  0.85552724     1.93700
Cr86       Cr  0.96017245  0.32864884  0.83553148     1.93200
Cr87       Cr  0.92632535  0.28700300  0.89657704     1.39100
O88         O  0.95670686  0.29456495  0.86190881    -1.22900
O89         O  0.74401503  0.02100402  0.22329367    -0.85100
O90         O  0.71188943  0.99570388  0.29246142    -0.82100
C91         C  0.69106395  0.99538203  0.32050809     0.98400
O92         O  0.66569320  0.99906538  0.30617403    -0.82200
O93         O  0.65567669  0.05529551  0.28445835    -0.84800
C94         C  0.65616747  0.07865413  0.26255509     1.02900
O95         O  0.66658263  0.07977337  0.22147300    -0.77600
O96         O  0.72265364  0.06271341  0.23106704    -0.77800
C97         C  0.74453687  0.04728607  0.23520041     1.02800
O98         O  0.71006094  0.98887046  0.15362843    -0.85100
O99         O  0.68133368  0.96123372  0.22586521    -0.82200
C100        C  0.65522365  0.96138297  0.21459980     0.98400
O101        O  0.64114623  0.98416256  0.21493724    -0.82200
O102        O  0.62942191  0.03940795  0.19669787    -0.84800
C103        C  0.63640907  0.04255076  0.15383301     1.02900
O104        O  0.66223030  0.04290174  0.14131607    -0.77600
O105        O  0.72046922  0.03379551  0.14290838    -0.77800
C106        C  0.72031356  0.00835033  0.12814149     1.02800
Cr107      Cr  0.70984149  0.99377704  0.22339238     1.93700
Cr108      Cr  0.65071640  0.01939700  0.24865405     1.93200
Cr109      Cr  0.69241377  0.05251734  0.18677033     1.39100
O110        O  0.68433674  0.02183345  0.22040794    -1.22900
O111        O  0.76421119  0.99397620  0.79310080    -0.85100
O112        O  0.73238702  0.02002832  0.72448995    -0.82100
C113        C  0.73251192  0.04632971  0.73631408     0.98400
O114        O  0.75471632  0.06127724  0.73167953    -0.82200
O115        O  0.81113575  0.07677026  0.72065747    -0.84800
C116        C  0.82176659  0.07536432  0.76143832     1.02900
O117        O  0.82177229  0.05204023  0.78345215    -0.77600
O118        O  0.81057651  0.99609417  0.80557428    -0.77800
C119        C  0.78523178  0.99286406  0.82057783     1.02800
O120        O  0.79346515  0.95869882  0.72596109    -0.85100
O121        O  0.76525425  0.98705669  0.65436169    -0.82200
C122        C  0.75566880  0.00670731  0.62863179     0.98400
O123        O  0.75566903  0.03212976  0.64339970    -0.82200
O124        O  0.81419266  0.04011223  0.64036168    -0.84800
C125        C  0.84006887  0.03973255  0.65243788     1.02900
O126        O  0.84717158  0.03583402  0.69506379    -0.77600
O127        O  0.83403349  0.98073889  0.71341839    -0.77800
C128        C  0.81944862  0.95824853  0.71374220     1.02800
Cr129      Cr  0.76581014  0.99197438  0.72399344     1.93700
Cr130      Cr  0.78443083  0.05025826  0.68661569     1.93200
Cr131      Cr  0.82567667  0.01613322  0.74752833     1.39100
O132        O  0.79196344  0.01940943  0.72019425    -1.22900
O133        O  0.51910187  0.24535251  0.85775293    -0.85100
O134        O  0.49506874  0.21325508  0.78721950    -0.82100
C135        C  0.49387422  0.19208073  0.75992008     0.98400
O136        O  0.49634796  0.16671159  0.77526632    -0.82200
O137        O  0.55191647  0.15608386  0.79913976    -0.84800
C138        C  0.57484259  0.15591992  0.82201478     1.02900
O139        O  0.57564528  0.16645063  0.86299138    -0.77600
O140        O  0.56041348  0.22316607  0.85255070    -0.77800
C141        C  0.54563987  0.24546288  0.84789903     1.02800
O142        O  0.48466623  0.21246359  0.92560421    -0.85100
O143        O  0.45823106  0.18398471  0.85206090    -0.82200
C144        C  0.45738445  0.15806140  0.86483376     0.98400
O145        O  0.47972206  0.14333303  0.86661682    -0.82200
O146        O  0.53458658  0.13011902  0.88644374    -0.84800
C147        C  0.53769111  0.13708032  0.92926306     1.02900
O148        O  0.53762550  0.16295192  0.94172176    -0.77600
O149        O  0.52951145  0.22153130  0.93927532    -0.77800
C150        C  0.50378605  0.22196497  0.95243934     1.02800
Cr151      Cr  0.49127562  0.21176303  0.85619706     1.93700
Cr152      Cr  0.51559851  0.15175639  0.83375677     1.93200
Cr153      Cr  0.54855885  0.19302168  0.89645045     1.39100
O154        O  0.51844111  0.18552899  0.86143406    -1.22900
O155        O  0.49392900  0.26630827  0.28863326    -0.85100
O156        O  0.51885399  0.23543977  0.35955028    -0.82100
C157        C  0.54546630  0.23588439  0.35002546     0.98400
O158        O  0.55980358  0.25845452  0.35508947    -0.82200
O159        O  0.57401673  0.31532660  0.36313036    -0.84800
C160        C  0.57309587  0.32487936  0.32149303     1.02900
O161        O  0.55010182  0.32429293  0.29884610    -0.77600
O162        O  0.49469530  0.31268345  0.27536043    -0.77800
C163        C  0.49260857  0.28713887  0.26067533     1.02800
O164        O  0.45668594  0.29583880  0.35332404    -0.85100
O165        O  0.48370445  0.26797207  0.42678856    -0.82200
C166        C  0.50290166  0.25886143  0.45374732     0.98400
O167        O  0.52872859  0.26045759  0.44142570    -0.82200
O168        O  0.53607498  0.31969944  0.44215218    -0.84800
C169        C  0.53609693  0.34538153  0.42837764     1.02900
O170        O  0.53262038  0.35142358  0.38516842    -0.77600
O171        O  0.47795696  0.33691492  0.36587230    -0.77800
C172        C  0.45571031  0.32198530  0.36503055     1.02800
Cr173      Cr  0.49029420  0.26848586  0.35758755     1.93700
Cr174      Cr  0.54730432  0.28892198  0.39782738     1.93200
Cr175      Cr  0.51381836  0.32863952  0.33334340     1.39100
O176        O  0.51706909  0.29531155  0.36233876    -1.22900
O177        O  0.24207303  0.95981049  0.36157610    -0.85100
O178        O  0.21163730  0.98425772  0.28972416    -0.82100
C179        C  0.19089001  0.98510325  0.26170661     0.98400
O180        O  0.16535611  0.98321576  0.27626992    -0.82200
O181        O  0.15341797  0.92805680  0.30137476    -0.84800
C182        C  0.15319927  0.90518706  0.32461087     1.02900
O183        O  0.16243323  0.90480677  0.36636573    -0.77600
O184        O  0.21906774  0.91883160  0.35687332    -0.77800
C185        C  0.24157049  0.93322491  0.35157929     1.02800
O186        O  0.20907747  0.99551918  0.42779991    -0.85100
O187        O  0.18208590  0.02216341  0.35246898    -0.82200
C188        C  0.15586846  0.02359974  0.36322890     0.98400
O189        O  0.14086117  0.00142454  0.36574788    -0.82200
O190        O  0.12656127  0.94675363  0.38732568    -0.84800
C191        C  0.13283137  0.94364380  0.43048903     1.02900
O192        O  0.15846482  0.94354649  0.44389346    -0.77600
O193        O  0.21722640  0.95052613  0.44264912    -0.77800
C194        C  0.21795840  0.97635879  0.45523051     1.02800
Cr195      Cr  0.20918382  0.98850008  0.35853469     1.93700
Cr196      Cr  0.14919296  0.96487862  0.33472152     1.93200
Cr197      Cr  0.18885672  0.93172671  0.39975904     1.39100
O198        O  0.18241314  0.96177618  0.36367912    -1.22900
O199        O  0.26319674  0.98420563  0.79006256    -0.85100
O200        O  0.23297251  0.95843249  0.86083093    -0.82100
C201        C  0.23340987  0.93226653  0.84850374     0.98400
O202        O  0.25595048  0.91780686  0.85199837    -0.82200
O203        O  0.31246848  0.90352994  0.85871684    -0.84800
C204        C  0.32215819  0.90551939  0.81733581     1.02900
O205        O  0.32215069  0.92913958  0.79619945    -0.77600
O206        O  0.30947533  0.98496462  0.77632968    -0.77800
C207        C  0.28387598  0.98655595  0.76202373     1.02800
O208        O  0.29272017  0.02089996  0.85429868    -0.85100
O209        O  0.26628858  0.99229838  0.92838674    -0.82200
C210        C  0.25758982  0.97238063  0.95458398     0.98400
O211        O  0.25853185  0.94684354  0.94037380    -0.82200
O212        O  0.31719683  0.93931373  0.93976016    -0.84800
C213        C  0.34280001  0.94007201  0.92603534     1.02900
O214        O  0.34893633  0.94483717  0.88320562    -0.77600
O215        O  0.33380053  0.00011487  0.86754261    -0.77800
C216        C  0.31874662  0.02224591  0.86591506     1.02800
Cr217      Cr  0.26586648  0.98701200  0.85887073     1.93700
Cr218      Cr  0.28644718  0.92921274  0.89524937     1.93200
Cr219      Cr  0.32596113  0.96471886  0.83287222     1.39100
O220        O  0.29277156  0.96033943  0.86172670    -1.26100
O221        O  0.45451510  0.74609583  0.72582307    -0.85100
O222        O  0.48030902  0.71495237  0.79547332    -0.82100
C223        C  0.48135829  0.69393974  0.82315291     0.98400
O224        O  0.47850728  0.66847489  0.80840538    -0.82200
O225        O  0.42321796  0.65616459  0.78414948    -0.84800
C226        C  0.40026531  0.65603061  0.76136322     1.02900
O227        O  0.39954743  0.66621910  0.72018207    -0.77600
O228        O  0.41382566  0.72272982  0.73163598    -0.77800
C229        C  0.42809015  0.74534871  0.73644808     1.02800
O230        O  0.48908539  0.71423086  0.65678013    -0.85100
O231        O  0.51704191  0.68633394  0.73012040    -0.82200
C232        C  0.51834271  0.66003669  0.71967846     0.98400
O233        O  0.49619687  0.64498798  0.71800253    -0.82200
O234        O  0.44156075  0.63090812  0.69665605    -0.84800
C235        C  0.43780173  0.63793861  0.65388831     1.02900
O236        O  0.43740508  0.66382064  0.64148016    -0.77600
O237        O  0.44402970  0.72268410  0.64451048    -0.77800
C238        C  0.46959794  0.72375789  0.63071538     1.02800
Cr239      Cr  0.48324984  0.71332185  0.72643274     1.93700
Cr240      Cr  0.45986683  0.65284809  0.74983525     1.93200
Cr241      Cr  0.42606819  0.69338339  0.68712999     1.39100
O242        O  0.45650525  0.68649073  0.72184133    -1.22900
O243        O  0.48201200  0.76756030  0.29516086    -0.85100
O244        O  0.45600854  0.73606492  0.22604571    -0.82100
C245        C  0.42956239  0.73635022  0.23674696     0.98400
O246        O  0.41494475  0.75875617  0.23188986    -0.82200
O247        O  0.39977297  0.81542252  0.22071523    -0.84800
C248        C  0.40048320  0.82552653  0.26196487     1.02900
O249        O  0.42343788  0.82509954  0.28479077    -0.77600
O250        O  0.47909594  0.81390364  0.30861203    -0.77800
C251        C  0.48286005  0.78847616  0.32300585     1.02800
O252        O  0.51751846  0.79703523  0.22876912    -0.85100
O253        O  0.48982403  0.76889351  0.15665474    -0.82200
C254        C  0.47052041  0.75909012  0.13061369     0.98400
O255        O  0.44496790  0.75948959  0.14455944    -0.82200
O256        O  0.43769401  0.81838227  0.14181398    -0.84800
C257        C  0.43817101  0.84426395  0.15423712     1.02900
O258        O  0.44128380  0.85117170  0.19719786    -0.77600
O259        O  0.49583527  0.83805081  0.21788770    -0.77800
C260        C  0.51813961  0.82329310  0.21788640     1.02800
Cr261      Cr  0.48427653  0.76941051  0.22614168     1.93700
Cr262      Cr  0.42666036  0.78850880  0.18742671     1.93200
Cr263      Cr  0.45992711  0.82934215  0.25024458     1.39100
O264        O  0.45705288  0.79574491  0.22207287    -1.22900
O265        O  0.99479063  0.71535132  0.29618268    -0.85100
O266        O  0.01895084  0.74710601  0.22512227    -0.82100
C267        C  0.04538499  0.74722969  0.23548071     0.98400
O268        O  0.06017472  0.72495975  0.23127722    -0.82200
O269        O  0.07566834  0.66867718  0.22236441    -0.84800
C270        C  0.07453081  0.65850770  0.26361619     1.02900
O271        O  0.05125833  0.65783446  0.28560883    -0.77600
O272        O  0.99556478  0.66881944  0.30843430    -0.77800
C273        C  0.99321337  0.69423500  0.32360908     1.02800
O274        O  0.95794951  0.68562854  0.23204240    -0.85100
O275        O  0.98483481  0.71370421  0.15812786    -0.82200
C276        C  0.00397924  0.72310223  0.13112123     0.98400
O277        O  0.02973286  0.72275936  0.14405695    -0.82200
O278        O  0.03863808  0.66419101  0.14254642    -0.84800
C279        C  0.03855571  0.63836753  0.15535571     1.02900
O280        O  0.03478334  0.63164244  0.19823594    -0.77600
O281        O  0.97966337  0.64518894  0.21706097    -0.77800
C282        C  0.95716963  0.65966242  0.21941454     1.02800
Cr283      Cr  0.99115161  0.71345280  0.22733087     1.93700
Cr284      Cr  0.04876092  0.69464641  0.18767034     1.93200
Cr285      Cr  0.01528722  0.65354766  0.25037568     1.39100
O286        O  0.01838540  0.68721776  0.22243511    -1.22900
O287        O  0.02045192  0.73502988  0.72604427    -0.85100
O288        O  0.99462935  0.76625586  0.79600068    -0.82100
C289        C  0.99267169  0.78729789  0.82341008     0.98400
O290        O  0.99506092  0.81275449  0.80834375    -0.82200
O291        O  0.05086611  0.82471592  0.78575777    -0.84800
C292        C  0.07398677  0.82524222  0.76322785     1.02900
O293        O  0.07526544  0.81507721  0.72207175    -0.77600
O294        O  0.06127850  0.75815964  0.73162338    -0.77800
C295        C  0.04692683  0.73552853  0.73622900     1.02800
O296        O  0.98604349  0.76713561  0.65752839    -0.85100
O297        O  0.95808681  0.79515701  0.73027374    -0.82200
C298        C  0.95702782  0.82125831  0.71830641     0.98400
O299        O  0.97919065  0.83625266  0.71700171    -0.82200
O300        O  0.03390605  0.85063110  0.69850813    -0.84800
C301        C  0.03766364  0.84412136  0.65558239     1.02900
O302        O  0.03804789  0.81833961  0.64255171    -0.77600
O303        O  0.03122362  0.75930756  0.64469181    -0.77800
C304        C  0.00561444  0.75782556  0.63137913     1.02800
Cr305      Cr  0.99178927  0.76795965  0.72696151     1.93700
Cr306      Cr  0.01478159  0.82836578  0.75050135     1.93200
Cr307      Cr  0.04911550  0.78818431  0.68784415     1.39100
O308        O  0.01852017  0.79479584  0.72248196    -1.22900
O309        O  0.23209457  0.52310871  0.35894868    -0.85100
O310        O  0.26293452  0.49721559  0.28865141    -0.82100
C311        C  0.28380866  0.49504494  0.26095260     0.98400
O312        O  0.30930680  0.49699633  0.27563621    -0.82200
O313        O  0.32165343  0.55293677  0.29622394    -0.84800
C314        C  0.32180742  0.57642889  0.31771625     1.02900
O315        O  0.31174897  0.57814231  0.35896128    -0.77600
O316        O  0.25513960  0.56388536  0.35126630    -0.77800
C317        C  0.23248800  0.54958835  0.34814045     1.02800
O318        O  0.26486153  0.48899370  0.42712906    -0.85100
O319        O  0.29207200  0.46062063  0.35375648    -0.82200
C320        C  0.31810468  0.45944418  0.36554293     0.98400
O321        O  0.33302760  0.48168668  0.36719963    -0.82200
O322        O  0.34766027  0.53690757  0.38378278    -0.84800
C323        C  0.34112786  0.54128382  0.42655344     1.02900
O324        O  0.31545675  0.54160906  0.43974258    -0.77600
O325        O  0.25687662  0.53432377  0.43935109    -0.77800
C326        C  0.25597678  0.50872881  0.45344068     1.02800
Cr327      Cr  0.26501988  0.49444470  0.35756797     1.93700
Cr328      Cr  0.32524014  0.51715495  0.33269580     1.93200
Cr329      Cr  0.28525964  0.55215583  0.39477017     1.39100
O330        O  0.29181340  0.52123235  0.36095303    -1.22900
O331        O  0.21127539  0.49643671  0.78874099    -0.85100
O332        O  0.24206530  0.52111145  0.86024400    -0.82100
C333        C  0.24176334  0.54761470  0.84987907     0.98400
O334        O  0.21922239  0.56203081  0.85411304    -0.82200
O335        O  0.16235078  0.57601983  0.86228345    -0.84800
C336        C  0.15227274  0.57467446  0.82108772     1.02900
O337        O  0.15228620  0.55136242  0.79904213    -0.77600
O338        O  0.16486464  0.49583257  0.77657626    -0.77800
C339        C  0.19030059  0.49455884  0.76128131     1.02800
O340        O  0.18238076  0.45865539  0.85261708    -0.85100
O341        O  0.20931908  0.48608189  0.92704597    -0.82200
C342        C  0.21790895  0.50555347  0.95413640     0.98400
O343        O  0.21691362  0.53133937  0.94112958    -0.82200
O344        O  0.15825303  0.53872018  0.94213505    -0.84800
C345        C  0.13258375  0.53827101  0.92895224     1.02900
O346        O  0.12625398  0.53413577  0.88609308    -0.77600
O347        O  0.14142803  0.47918262  0.86799578    -0.77800
C348        C  0.15651984  0.45710490  0.86531926     1.02800
Cr349      Cr  0.20920154  0.49254093  0.85770951     1.93700
Cr350      Cr  0.18874575  0.54971617  0.89727920     1.93200
Cr351      Cr  0.14888003  0.51513655  0.83441622     1.39100
O352        O  0.18230326  0.51915151  0.86245971    -1.22900
C353        C  0.21713032  0.50625272  0.55900956     0.30000
C354        C  0.19635138  0.51506723  0.59158219    -0.36300
C355        C  0.19761592  0.50235480  0.63630639     0.16000
C356        C  0.21834981  0.48278361  0.64849303     0.21800
C357        C  0.23859971  0.47328398  0.61542356    -0.34400
C358        C  0.23698132  0.48560104  0.57035244     0.15900
O359        O  0.22106410  0.51683519  0.51641200    -0.26500
C360        C  0.24330557  0.50234177  0.49972229     0.05700
C361        C  0.25398844  0.48242998  0.53156436    -0.31300
O362        O  0.21777298  0.47641749  0.69380637    -0.23200
C363        C  0.19589714  0.49148768  0.71055551    -0.03200
C364        C  0.18238664  0.50780095  0.67627900    -0.17600
H365        H  0.18088560  0.53145043  0.58314737     0.20400
H366        H  0.25512154  0.45815327  0.62469712     0.18800
H367        H  0.27243666  0.46874128  0.52754279     0.18700
H368        H  0.16546402  0.52327095  0.68104321     0.14600
C369        C  0.25400725  0.48231888  0.15009637     0.30000
C370        C  0.23240299  0.47416886  0.11858013    -0.36300
C371        C  0.23524692  0.48421401  0.07219571     0.16000
C372        C  0.25753194  0.50158567  0.05819325     0.21800
C373        C  0.27951892  0.50906090  0.08934982    -0.34400
C374        C  0.27698045  0.49854567  0.13544264     0.15900
O375        O  0.25412288  0.47779888  0.19594906    -0.26500
C376        C  0.27781536  0.49068897  0.21069594     0.05700
C377        C  0.29306728  0.50371044  0.17450824    -0.31300
O378        O  0.25458233  0.51086452  0.01463355    -0.23200
C379        C  0.23049867  0.49872396  0.00006441    -0.03200
C380        C  0.21757207  0.48174091  0.03422921    -0.17600
H381        H  0.21411570  0.46176775  0.12986816     0.20400
H382        H  0.29686640  0.52296839  0.07881957     0.18800
H383        H  0.31183368  0.51710140  0.17728503     0.18700
H384        H  0.19733164  0.47065548  0.03222577     0.14600
C385        C  0.12280947  0.64180677  0.79815793     0.30000
C386        C  0.11809978  0.67096426  0.80609368    -0.36300
C387        C  0.09501208  0.68309742  0.78214219     0.16000
C388        C  0.07738828  0.66765622  0.75270867     0.21800
C389        C  0.08237008  0.63844090  0.74420467    -0.34400
C390        C  0.10582147  0.62632926  0.76775895     0.15900
O391        O  0.14220577  0.62594311  0.81913686    -0.26500
C392        C  0.13806770  0.59997821  0.80141392     0.05700
C393        C  0.11582152  0.59892962  0.76897820    -0.31300
O394        O  0.05705823  0.68362376  0.73394970    -0.23200
C395        C  0.06203377  0.70958466  0.75145859    -0.03200
C396        C  0.08541209  0.71045437  0.78141644    -0.17600
H397        H  0.13139285  0.68330719  0.82968049     0.20400
H398        H  0.06888660  0.62602053  0.72103599     0.18800
H399        H  0.10709345  0.58034872  0.75142541     0.18700
H400        H  0.09438051  0.72881833  0.79927590     0.14600
C401        C  0.12452296  0.61221510  0.31378672     0.30000
C402        C  0.13378322  0.58685206  0.33562418    -0.36300
C403        C  0.16303825  0.58073672  0.33169010     0.16000
C404        C  0.18183008  0.59874136  0.30874820     0.21800
C405        C  0.17258878  0.62390962  0.28676069    -0.34400
C406        C  0.14337162  0.62971503  0.28992898     0.15900
O407        O  0.09791293  0.62116574  0.31030311    -0.26500
C408        C  0.09980122  0.64451995  0.28355508     0.05700
C409        C  0.12757030  0.65083158  0.26986237    -0.31300
O410        O  0.20830684  0.58956164  0.31051463    -0.23200
C411        C  0.20659743  0.56506250  0.33417646    -0.03200
C412        C  0.17890306  0.55832162  0.34814284    -0.17600
H413        H  0.11913322  0.57263674  0.35359669     0.20400
H414        H  0.18714472  0.63780340  0.26789632     0.18800
H415        H  0.13482216  0.66766837  0.24652844     0.18700
H416        H  0.17176935  0.54030215  0.36902565     0.14600
C417        C  0.09132660  0.55522966  0.02743339     0.30000
C418        C  0.08634201  0.55871050  0.07583115    -0.36300
C419        C  0.06722327  0.58047372  0.08834051     0.16000
C420        C  0.05412664  0.59779268  0.05543679     0.21800
C421        C  0.05801424  0.59337406  0.00702612    -0.34400
C422        C  0.07691348  0.57145173  0.99451034     0.15900
O423        O  0.11194367  0.53989450  0.00841337    -0.26500
C424        C  0.11014907  0.54579886  0.96268084     0.05700
C425        C  0.08848108  0.56493981  0.95189871    -0.31300
O426        O  0.04111793  0.61982879  0.07479705    -0.23200
C427        C  0.04534561  0.61619796  0.12070163    -0.03200
C428        C  0.06112633  0.59188619  0.13128064    -0.17600
H429        H  0.09821336  0.54682208  0.10198189     0.20400
H430        H  0.04866869  0.60745331  0.98101836     0.18800
H431        H  0.08422959  0.57512555  0.91837633     0.18700
H432        H  0.06933109  0.58530354  0.16521719     0.14600
C433        C  0.99789462  0.70048981  0.44618366     0.30000
C434        C  0.01086131  0.69671372  0.49024387    -0.36300
C435        C  0.00311309  0.71632231  0.52538471     0.16000
C436        C  0.98334752  0.73776132  0.51826706     0.21800
C437        C  0.97037544  0.74155004  0.47416908    -0.34400
C438        C  0.97869236  0.72238500  0.43864142     0.15900
O439        O  0.00418831  0.68643045  0.40719630    -0.26500
C440        C  0.98906148  0.69968145  0.37414975     0.05700
C441        C  0.97286823  0.72222899  0.39167680    -0.31300
O442        O  0.98054345  0.75464205  0.55531303    -0.23200
C443        C  0.99907483  0.74406598  0.58618308    -0.03200
C444        C  0.01371704  0.72030979  0.56943979    -0.17600
H445        H  0.02694388  0.68050589  0.49605574     0.20400
H446        H  0.95586980  0.75906211  0.46739932     0.18800
H447        H  0.95992791  0.73726767  0.37214113     0.18700
H448        H  0.03044290  0.70833485  0.58675555     0.14600
C449        C  0.97945914  0.75825178  0.93509371     0.30000
C450        C  0.97178149  0.73660094  0.96708668    -0.36300
C451        C  0.98158178  0.74000107  0.01344629     0.16000
C452        C  0.99817840  0.76293114  0.02708894     0.21800
C453        C  0.00497914  0.78505783  0.99552669    -0.34400
C454        C  0.99484546  0.78186970  0.94936769     0.15900
O455        O  0.97553740  0.75772145  0.88909889    -0.26500
C456        C  0.98800472  0.78160998  0.87382107     0.05700
C457        C  0.00006870  0.79766812  0.90985013    -0.31300
O458        O  0.00777166  0.76025207  0.07050159    -0.23200
C459        C  0.99663039  0.73564862  0.08529546    -0.03200
C460        C  0.97992389  0.72218923  0.05149449    -0.17600
H461        H  0.96015587  0.71775838  0.95608174     0.20400
H462        H  0.01837935  0.80286479  0.00569592     0.18800
H463        H  0.01299080  0.81677829  0.90676935     0.18700
H464        H  0.96966103  0.70148700  0.05369307     0.14600
C465        C  0.35152652  0.64330131  0.29372061     0.30000
C466        C  0.35583818  0.67257665  0.30089715    -0.36300
C467        C  0.38026591  0.68427896  0.28004250     0.16000
C468        C  0.39942727  0.66840465  0.25398041     0.21800
C469        C  0.39488441  0.63903653  0.24620739    -0.34400
C470        C  0.37014970  0.62730693  0.26677826     0.15900
O471        O  0.33116869  0.62775388  0.31297409    -0.26500
C472        C  0.33633803  0.60144729  0.29754946     0.05700
C473        C  0.36020613  0.59987110  0.26830787    -0.31300
O474        O  0.42057379  0.68417961  0.23707077    -0.23200
C475        C  0.41457826  0.71041748  0.25245172    -0.03200
C476        C  0.38981094  0.71162602  0.27931721    -0.17600
H477        H  0.34129528  0.68531568  0.32180233     0.20400
H478        H  0.40959921  0.62623533  0.22575547     0.18800
H479        H  0.37004099  0.58095547  0.25353760     0.18700
H480        H  0.37973260  0.73026515  0.29462414     0.14600
C481        C  0.35000925  0.60940281  0.81140439     0.30000
C482        C  0.34051177  0.58490626  0.83569253    -0.36300
C483        C  0.31139901  0.57819393  0.83099224     0.16000
C484        C  0.29294061  0.59479394  0.80485725     0.21800
C485        C  0.30248479  0.61892452  0.78009364    -0.34400
C486        C  0.33153340  0.62539472  0.78432069     0.15900
O487        O  0.37648188  0.61908700  0.80927289    -0.26500
C488        C  0.37486850  0.64142607  0.78020235     0.05700
C489        C  0.34742400  0.64626535  0.76359138    -0.31300
O490        O  0.26639219  0.58570403  0.80722387    -0.23200
C491        C  0.26774537  0.56262505  0.83451571    -0.03200
C492        C  0.29526730  0.55671513  0.85013538    -0.17600
H493        H  0.35482559  0.57193204  0.85656142     0.20400
H494        H  0.28820302  0.63180408  0.75899423     0.18800
H495        H  0.34045237  0.66216051  0.73838261     0.18700
H496        H  0.30207101  0.53997893  0.87393896     0.14600
C497        C  0.38162792  0.55830062  0.52523288     0.30000
C498        C  0.38664573  0.56134138  0.57359699    -0.36300
C499        C  0.40683581  0.58202680  0.58622898     0.16000
C500        C  0.42074646  0.59892932  0.55350861     0.21800
C501        C  0.41655145  0.59511403  0.50506559    -0.34400
C502        C  0.39670182  0.57409507  0.49240855     0.15900
O503        O  0.36086668  0.54333932  0.50608444    -0.26500
C504        C  0.36322533  0.54901585  0.46037201     0.05700
C505        C  0.38530943  0.56775809  0.44967975    -0.31300
O506        O  0.43497464  0.62004982  0.57318947    -0.23200
C507        C  0.43071620  0.61613608  0.61904568    -0.03200
C508        C  0.41367324  0.59263082  0.62930593    -0.17600
H509        H  0.37433298  0.54973172  0.59964774     0.20400
H510        H  0.42664134  0.60882556  0.47919637     0.18800
H511        H  0.39020942  0.57755285  0.41605008     0.18700
H512        H  0.40507743  0.58627136  0.66316782     0.14600
C513        C  0.47891021  0.78176052  0.44562904     0.30000
C514        C  0.46607868  0.78564434  0.48985145    -0.36300
C515        C  0.47299470  0.76543223  0.52455006     0.16000
C516        C  0.49193335  0.74332176  0.51691076     0.21800
C517        C  0.50478417  0.73940985  0.47260756    -0.34400
C518        C  0.49724803  0.75920480  0.43747707     0.15900
O519        O  0.47299035  0.79629320  0.40696023    -0.26500
C520        C  0.48742242  0.78270251  0.37340454     0.05700
C521        C  0.50291824  0.75948027  0.39037029    -0.31300
O522        O  0.49422463  0.72617550  0.55379956    -0.23200
C523        C  0.47619899  0.73728039  0.58512622    -0.03200
C524        C  0.46232555  0.76158823  0.56872140    -0.17600
H525        H  0.45064131  0.80242132  0.49608195     0.20400
H526        H  0.51861085  0.72140911  0.46540385     0.18800
H527        H  0.51512354  0.74402902  0.37037548     0.18700
H528        H  0.44617329  0.77415528  0.58645306     0.14600
C529        C  0.49459529  0.72265256  0.93491494     0.30000
C530        C  0.50321218  0.74381885  0.96700980    -0.36300
C531        C  0.49284803  0.74096182  0.01321678     0.16000
C532        C  0.47487973  0.71900180  0.02663395     0.21800
C533        C  0.46711398  0.69729911  0.99498331    -0.34400
C534        C  0.47778564  0.69993810  0.94897329     0.15900
O535        O  0.49905786  0.72289181  0.88901211    -0.26500
C536        C  0.48550686  0.69967472  0.87360972     0.05700
C537        C  0.47213974  0.68439215  0.90943164    -0.31300
O538        O  0.46508946  0.72221661  0.06989875    -0.23200
C539        C  0.47744735  0.74617366  0.08482192    -0.03200
C540        C  0.49518218  0.75864811  0.05125730    -0.17600
H541        H  0.51599907  0.76196145  0.95618464     0.20400
H542        H  0.45268171  0.68025093  0.00496850     0.18800
H543        H  0.45830004  0.66596084  0.90617084     0.18700
H544        H  0.50658957  0.77872987  0.05357735     0.14600
C545        C  0.14039906  0.85649206  0.78427352     0.30000
C546        C  0.16954574  0.86121060  0.77681004    -0.36300
C547        C  0.18132914  0.88480926  0.80002395     0.16000
C548        C  0.16556178  0.90296832  0.82816444     0.21800
C549        C  0.13629150  0.89814997  0.83581946    -0.34400
C550        C  0.12456201  0.87410068  0.81324778     0.15900
O551        O  0.12496895  0.83620315  0.76466680    -0.26500
C552        C  0.09894083  0.84038576  0.78195827     0.05700
C553        C  0.09739420  0.86360150  0.81257568    -0.31300
O554        O  0.18139671  0.92322944  0.84751659    -0.23200
C555        C  0.20759255  0.91763671  0.83175717    -0.03200
C556        C  0.20872187  0.89404217  0.80210777    -0.17600
H557        H  0.18222027  0.84731881  0.75462625     0.20400
H558        H  0.12364753  0.91194266  0.85820410     0.18800
H559        H  0.07866441  0.87246819  0.82944431     0.18700
H560        H  0.22730228  0.88449593  0.78577932     0.14600
C561        C  0.39853458  0.81320665  0.75435280     0.30000
C562        C  0.39499063  0.84277289  0.74792360    -0.36300
C563        C  0.37001111  0.85459784  0.76712526     0.16000
C564        C  0.35025166  0.83851772  0.79174470     0.21800
C565        C  0.35358593  0.80902143  0.79761557    -0.34400
C566        C  0.37825982  0.79720468  0.77792579     0.15900
O567        O  0.41981131  0.79741361  0.73835679    -0.26500
C568        C  0.41279220  0.77103747  0.75171780     0.05700
C569        C  0.38720790  0.76970035  0.77641084    -0.31300
O570        O  0.32983880  0.85418029  0.81031884    -0.23200
C571        C  0.33616213  0.88059788  0.79660654    -0.03200
C572        C  0.36080841  0.88219071  0.76931713    -0.17600
H573        H  0.41061344  0.85564524  0.72943738     0.20400
H574        H  0.33816706  0.79621680  0.81670459     0.18800
H575        H  0.37635191  0.75096540  0.78996565     0.18700
H576        H  0.37159494  0.90114050  0.75647727     0.14600
C577        C  0.38470789  0.92463169  0.02403469     0.30000
C578        C  0.38995478  0.92203082  0.07240284    -0.36300
C579        C  0.40983193  0.90117313  0.08546341     0.16000
C580        C  0.42342644  0.88382642  0.05310713     0.21800
C581        C  0.41924878  0.88740764  0.00454147    -0.34400
C582        C  0.39949937  0.90845295  0.99145287     0.15900
O583        O  0.36362387  0.93914478  0.00492790    -0.26500
C584        C  0.36539910  0.93280662  0.95941295     0.05700
C585        C  0.38752879  0.91410715  0.94880215    -0.31300
O586        O  0.43676706  0.86226289  0.07326080    -0.23200
C587        C  0.43218532  0.86628987  0.11902665    -0.03200
C588        C  0.41596143  0.89039842  0.12875308    -0.17600
H589        H  0.37770530  0.93381701  0.09824355     0.20400
H590        H  0.42893881  0.87324483  0.97897832     0.18800
H591        H  0.39202245  0.90380078  0.91546621     0.18700
H592        H  0.40718130  0.89697550  0.16233504     0.14600
C593        C  0.10908443  0.85443571  0.27101962     0.30000
C594        C  0.08579462  0.84488323  0.24410082    -0.36300
C595        C  0.07759697  0.81626567  0.25099971     0.16000
C596        C  0.09185734  0.79825005  0.28143083     0.21800
C597        C  0.11493299  0.80779928  0.30843281    -0.34400
C598        C  0.12275008  0.83642607  0.30218563     0.15900
O599        O  0.11922526  0.88076686  0.27257955    -0.26500
C600        C  0.13947194  0.87952728  0.30536691     0.05700
C601        C  0.14260012  0.85246087  0.32488464    -0.31300
O602        O  0.08162027  0.77207049  0.28100107    -0.23200
C603        C  0.06007653  0.77329605  0.25072026    -0.03200
C604        C  0.05639964  0.80029791  0.23097812    -0.17600
H605        H  0.07457472  0.85889348  0.22010974     0.20400
H606        H  0.12586939  0.79390773  0.33297939     0.18800
H607        H  0.15646678  0.84594398  0.35338248     0.18700
H608        H  0.04140546  0.80673512  0.20405179     0.14600
C609        C  0.09230177  0.92693028  0.52963508     0.30000
C610        C  0.08813394  0.92249328  0.57796957    -0.36300
C611        C  0.06790085  0.90169911  0.59016174     0.16000
C612        C  0.05305552  0.88603586  0.55703529     0.21800
C613        C  0.05620620  0.89147444  0.50874387    -0.34400
C614        C  0.07620555  0.91252332  0.49655135     0.15900
O615        O  0.11346949  0.94143437  0.51050107    -0.26500
C616        C  0.11042120  0.93684416  0.46459296     0.05700
C617        C  0.08733614  0.91941934  0.45377051    -0.31300
O618        O  0.03917977  0.86428861  0.57582555    -0.23200
C619        C  0.04462753  0.86658637  0.62160099    -0.03200
C620        C  0.06204155  0.88965107  0.63264985    -0.17600
H621        H  0.10131456  0.93289187  0.60412860     0.20400
H622        H  0.04546579  0.87867889  0.48242589     0.18800
H623        H  0.08181234  0.91037256  0.41989801     0.18700
H624        H  0.07142562  0.89485293  0.66639585     0.14600
C625        C  0.21886098  0.99720457  0.14901250     0.30000
C626        C  0.23830833  0.00794788  0.11562258    -0.36300
C627        C  0.23749959  0.99517517  0.07089378     0.16000
C628        C  0.21915954  0.97300563  0.06022840     0.21800
C629        C  0.19918845  0.96287174  0.09309713    -0.34400
C630        C  0.19962662  0.97599012  0.13743661     0.15900
O631        O  0.21766858  0.00407582  0.19405437    -0.26500
C632        C  0.19685786  0.98763264  0.21111451     0.05700
C633        C  0.18472906  0.96987862  0.17744130    -0.31300
O634        O  0.22369654  0.96242323  0.01791585    -0.23200
C635        C  0.24479165  0.97836614  0.00072669    -0.03200
C636        C  0.25413835  0.99928937  0.03190682    -0.17600
H637        H  0.25364737  0.02440811  0.12438851     0.20400
H638        H  0.18492144  0.94532737  0.08512803     0.18800
H639        H  0.16885019  0.95334210  0.18261151     0.18700
H640        H  0.27154972  0.01426599  0.02736622     0.14600
C641        C  0.25380781  0.99929865  0.65130046     0.30000
C642        C  0.23229048  0.00761314  0.61972345    -0.36300
C643        C  0.23526281  0.99785473  0.57320802     0.16000
C644        C  0.25760256  0.98062533  0.55916082     0.21800
C645        C  0.27949081  0.97299724  0.59037255    -0.34400
C646        C  0.27680688  0.98319292  0.63657887     0.15900
O647        O  0.25388844  0.00363278  0.69719982    -0.26500
C648        C  0.27759825  0.99075812  0.71184842     0.05700
C649        C  0.29284622  0.97787625  0.67561543    -0.31300
O650        O  0.25471986  0.97146322  0.51556280    -0.23200
C651        C  0.23062480  0.98352554  0.50096273    -0.03200
C652        C  0.21761542  0.00035708  0.53518177    -0.17600
H653        H  0.21397127  0.01990677  0.63104715     0.20400
H654        H  0.29686173  0.95917879  0.57979108     0.18800
H655        H  0.31167140  0.96459515  0.67829949     0.18700
H656        H  0.19728502  0.01124205  0.53324684     0.14600
C657        C  0.33400490  0.85758526  0.28273778     0.30000
C658        C  0.30539665  0.86418856  0.27332351    -0.36300
C659        C  0.29337189  0.88614876  0.30047197     0.16000
C660        C  0.30846536  0.90100935  0.33422841     0.21800
C661        C  0.33704917  0.89411898  0.34410239    -0.34400
C662        C  0.34900168  0.87179616  0.31734754     0.15900
O663        O  0.34974350  0.83866210  0.26006321    -0.26500
C664        C  0.37512268  0.84032189  0.28083182     0.05700
C665        C  0.37585592  0.86049447  0.31693809    -0.31300
O666        O  0.29276918  0.92068098  0.35552408    -0.23200
C667        C  0.26728047  0.91811181  0.33527894    -0.03200
C668        C  0.26643674  0.89687953  0.30105894    -0.17600
H669        H  0.29335397  0.85303445  0.24651992     0.20400
H670        H  0.34912700  0.90536177  0.37075202     0.18800
H671        H  0.39397504  0.86700689  0.33793498     0.18700
H672        H  0.24833170  0.88996948  0.28035204     0.14600
C673        C  0.38842940  0.35491906  0.36943333     0.30000
C674        C  0.36176518  0.36359128  0.35140688    -0.36300
C675        C  0.35129323  0.39009455  0.36767784     0.16000
C676        C  0.36616997  0.40667843  0.39947749     0.21800
C677        C  0.39218835  0.39773502  0.41831721    -0.34400
C678        C  0.40258202  0.37155908  0.40202505     0.15900
O679        O  0.40435441  0.33337031  0.35414553    -0.26500
C680        C  0.42883083  0.33647399  0.37752128     0.05700
C681        C  0.42865823  0.35972338  0.40791717    -0.31300
O682        O  0.35514090  0.43229359  0.40474538    -0.23200
C683        C  0.33250034  0.43235146  0.37670521    -0.03200
C684        C  0.32877601  0.40652953  0.35292774    -0.17600
H685        H  0.35094470  0.35155689  0.32424169     0.20400
H686        H  0.40453622  0.41129666  0.44150054     0.18800
H687        H  0.44629296  0.36825497  0.42811218     0.18700
H688        H  0.31361330  0.40172048  0.32535574     0.14600
C689        C  0.38981428  0.12596146  0.86838966     0.30000
C690        C  0.36346870  0.11722409  0.84933188    -0.36300
C691        C  0.35223823  0.09131381  0.86674108     0.16000
C692        C  0.36605605  0.07539172  0.90071379     0.21800
C693        C  0.39176156  0.08446574  0.92058504    -0.34400
C694        C  0.40302502  0.10998424  0.90293551     0.15900
O695        O  0.40638841  0.14678625  0.85236726    -0.26500
C696        C  0.43037610  0.14384640  0.87703105     0.05700
C697        C  0.42929489  0.12144984  0.90911079    -0.31300
O698        O  0.35465640  0.04998030  0.90672150    -0.23200
C699        C  0.33286033  0.04944873  0.87695765    -0.03200
C700        C  0.33004470  0.07471002  0.85127765    -0.17600
H701        H  0.35354628  0.12864328  0.82054408     0.20400
H702        H  0.40336460  0.07130899  0.94539404     0.18800
H703        H  0.44641478  0.11321455  0.93077396     0.18700
H704        H  0.31583740  0.07891709  0.82209136     0.14600
C705        C  0.48001505  0.25814830  0.14867759     0.30000
C706        C  0.47084239  0.23733843  0.11627358    -0.36300
C707        C  0.48141319  0.24001462  0.07010048     0.16000
C708        C  0.50014208  0.26141903  0.05712312     0.21800
C709        C  0.50861516  0.28266534  0.08911513    -0.34400
C710        C  0.49767032  0.28028243  0.13498006     0.15900
O711        O  0.47500740  0.25823311  0.19447265    -0.26500
C712        C  0.48903692  0.28112604  0.21010909     0.05700
C713        C  0.50334729  0.29579087  0.17457052    -0.31300
O714        O  0.50981584  0.25820884  0.01380839    -0.23200
C715        C  0.49665910  0.23483676  0.99826517    -0.03200
C716        C  0.47848897  0.22269416  0.03160283    -0.17600
H717        H  0.45730875  0.21967570  0.12677206     0.20400
H718        H  0.52359057  0.29928962  0.07937638     0.18800
H719        H  0.51761056  0.31387929  0.17806201     0.18700
H720        H  0.46645761  0.20300054  0.02888496     0.14600
C721        C  0.49862152  0.21736025  0.55622133     0.30000
C722        C  0.50697461  0.19565115  0.58754878    -0.36300
C723        C  0.49669078  0.19798697  0.63386647     0.16000
C724        C  0.47965463  0.22039065  0.64833115     0.21800
C725        C  0.47046922  0.24149743  0.61660837    -0.34400
C726        C  0.48047296  0.23898600  0.57020791     0.15900
O727        O  0.50826641  0.22113622  0.51298805    -0.26500
C728        C  0.49564975  0.24510935  0.49873624     0.05700
C729        C  0.47784786  0.25702110  0.53263760    -0.31300
O730        O  0.47555119  0.22053014  0.69426532    -0.23200
C731        C  0.48955485  0.19758039  0.70944270    -0.03200
C732        C  0.50292037  0.18251986  0.67336726    -0.17600
H733        H  0.52163121  0.17892795  0.57714132     0.20400
H734        H  0.45759674  0.25943633  0.62789571     0.18800
H735        H  0.46641783  0.27709465  0.53100984     0.18700
H736        H  0.51705869  0.16432374  0.67638319     0.14600
C737        C  0.90483606  0.86925283  0.68182732     0.30000
C738        C  0.89611026  0.89529532  0.66242612    -0.36300
C739        C  0.86959881  0.90550873  0.67738046     0.16000
C740        C  0.85247035  0.89108865  0.70910532     0.21800
C741        C  0.86093765  0.86443024  0.72762204    -0.34400
C742        C  0.88777153  0.85419448  0.71283163     0.15900
O743        O  0.93055102  0.85836908  0.67794608    -0.26500
C744        C  0.93018077  0.83567275  0.70612318     0.05700
C745        C  0.90399864  0.83176154  0.72861165    -0.31300
O746        O  0.83069388  0.90686836  0.72363869    -0.23200
C747        C  0.83413446  0.93156620  0.70081229    -0.03200
C748        C  0.85781252  0.93168107  0.67130170    -0.17600
H749        H  0.91003791  0.90781995  0.63998410     0.20400
H750        H  0.84848524  0.85349470  0.75424546     0.18800
H751        H  0.89872148  0.81650507  0.75595784     0.18700
H752        H  0.86666363  0.94955811  0.65186212     0.14600
C753        C  0.66545309  0.07766619  0.75436029     0.30000
C754        C  0.63701656  0.08481065  0.74391377    -0.36300
C755        C  0.62541373  0.10782595  0.76943132     0.16000
C756        C  0.64057582  0.12240759  0.80343761     0.21800
C757        C  0.66894941  0.11543299  0.81358807    -0.34400
C758        C  0.68062937  0.09280428  0.78768650     0.15900
O759        O  0.68112769  0.05786803  0.73338841    -0.26500
C760        C  0.70663169  0.06063531  0.75351504     0.05700
C761        C  0.70749492  0.08204175  0.78737234    -0.31300
O762        O  0.62522488  0.14212971  0.82482372    -0.23200
C763        C  0.59994381  0.14059970  0.80382182    -0.03200
C764        C  0.59884889  0.11972134  0.76886191    -0.17600
H765        H  0.62488183  0.07341631  0.71751090     0.20400
H766        H  0.68113434  0.12693528  0.83981254     0.18800
H767        H  0.72569738  0.08936601  0.80745515     0.18700
H768        H  0.58064734  0.11315001  0.74810950     0.14600
C769        C  0.62173878  0.89440400  0.20943539     0.30000
C770        C  0.61361315  0.86741152  0.22703116    -0.36300
C771        C  0.58691766  0.85702664  0.21209456     0.16000
C772        C  0.56963831  0.87225134  0.18179453     0.21800
C773        C  0.57802478  0.89868550  0.16330083    -0.34400
C774        C  0.60440682  0.90907267  0.17848561     0.15900
O775        O  0.64353749  0.91009915  0.22397758    -0.26500
C776        C  0.63991043  0.93501793  0.20199880     0.05700
C777        C  0.61604083  0.93541044  0.17307518    -0.31300
O778        O  0.54402653  0.86110091  0.17793063    -0.23200
C779        C  0.54472791  0.83811392  0.20543444    -0.03200
C780        C  0.57099731  0.83422728  0.22736067    -0.17600
H781        H  0.62623488  0.85626929  0.25308669     0.20400
H782        H  0.56394546  0.91130596  0.14140745     0.18800
H783        H  0.60716202  0.95341785  0.15411110     0.18700
H784        H  0.57648466  0.81875762  0.25421367     0.14600
C785        C  0.60854939  0.12820168  0.31167604     0.30000
C786        C  0.58300423  0.13710970  0.33334600    -0.36300
C787        C  0.57664200  0.16643950  0.33013943     0.16000
C788        C  0.59454926  0.18563337  0.30792687     0.21800
C789        C  0.61982604  0.17671604  0.28584729    -0.34400
C790        C  0.62592479  0.14742107  0.28840558     0.15900
O791        O  0.61796290  0.10165137  0.30826888    -0.26500
C792        C  0.64152989  0.10388640  0.28213977     0.05700
C793        C  0.64745424  0.13188850  0.26873041    -0.31300
O794        O  0.58535648  0.21216287  0.31095283    -0.23200
C795        C  0.56094183  0.21010500  0.33472398    -0.03200
C796        C  0.55424892  0.18209040  0.34735676    -0.17600
H797        H  0.56894350  0.12217584  0.35101225     0.20400
H798        H  0.63371323  0.19160548  0.26769134     0.18800
H799        H  0.66442158  0.13947824  0.24600689     0.18700
H800        H  0.53635044  0.17460723  0.36812374     0.14600
C801        C  0.58056726  0.06999095  0.08775723     0.30000
C802        C  0.55912454  0.09008551  0.07892524    -0.36300
C803        C  0.55374327  0.09600054  0.03145995     0.16000
C804        C  0.56778345  0.08232616  0.99505696     0.21800
C805        C  0.58895218  0.06191049  0.00388109    -0.34400
C806        C  0.59503202  0.05673611  0.05137525     0.15900
O807        O  0.59211772  0.06488826  0.12909690    -0.26500
C808        C  0.61443285  0.04854092  0.11898577     0.05700
C809        C  0.61728089  0.04262234  0.07128743    -0.31300
O810        O  0.56210282  0.09373074  0.95374768    -0.23200
C811        C  0.54454056  0.11513536  0.96392900    -0.03200
C812        C  0.53850357  0.11756013  0.01164052    -0.17600
H813        H  0.54908848  0.10203932  0.10706216     0.20400
H814        H  0.60145927  0.05256757  0.97574719     0.18800
H815        H  0.63452477  0.03155026  0.05364177     0.18700
H816        H  0.52658885  0.13421277  0.02936670     0.14600
C817        C  0.74003282  0.98523895  0.01476859     0.30000
C818        C  0.73667556  0.97150895  0.97107619    -0.36300
C819        C  0.75627271  0.97918044  0.93563889     0.16000
C820        C  0.77811402  0.99849194  0.94295460     0.21800
C821        C  0.78142553  0.01220006  0.98653066    -0.34400
C822        C  0.76144101  0.00509853  0.02149190     0.15900
O823        O  0.72303945  0.98285643  0.05187418    -0.26500
C824        C  0.73354546  0.00178356  0.08232457     0.05700
C825        C  0.75731024  0.01625194  0.06518468    -0.31300
O826        O  0.79255654  0.00426736  0.90408168    -0.23200
C827        C  0.77966169  0.98870315  0.87120070    -0.03200
C828        C  0.75694215  0.97268955  0.88883621    -0.17600
H829        H  0.71924318  0.95686256  0.96451305     0.20400
H830        H  0.79763814  0.02833521  0.99209216     0.18800
H831        H  0.76942192  0.03301646  0.08222375     0.18700
H832        H  0.74200131  0.95960884  0.86936423     0.14600
C833        C  0.72049713  0.98339527  0.43202039     0.30000
C834        C  0.74178060  0.97512781  0.46405737    -0.36300
C835        C  0.73891478  0.98562620  0.51015327     0.16000
C836        C  0.71693632  0.00353309  0.52342075     0.21800
C837        C  0.69527749  0.01115866  0.49174451    -0.34400
C838        C  0.69781762  0.00019095  0.44596228     0.15900
O839        O  0.72039294  0.97834019  0.38630403    -0.26500
C840        C  0.69698675  0.99148525  0.37095291     0.05700
C841        C  0.68194268  0.00519777  0.40661788    -0.31300
O842        O  0.71974745  0.01294856  0.56692968    -0.23200
C843        C  0.74344097  0.00038155  0.58219447    -0.03200
C844        C  0.75621990  0.98296615  0.54853948    -0.17600
H845        H  0.75981971  0.96222042  0.45338934     0.20400
H846        H  0.67812826  0.02541895  0.50169661     0.18800
H847        H  0.66342291  0.01885037  0.40329512     0.18700
H848        H  0.77610566  0.97134107  0.55122115     0.14600
C849        C  0.08622850  0.35273100  0.86922828     0.30000
C850        C  0.11261381  0.36154595  0.85006182    -0.36300
C851        C  0.12370109  0.38759025  0.86717385     0.16000
C852        C  0.10971519  0.40353752  0.90097383     0.21800
C853        C  0.08406698  0.39434046  0.92106689    -0.34400
C854        C  0.07296264  0.36871197  0.90374533     0.15900
O855        O  0.06960792  0.33193195  0.85324784    -0.26500
C856        C  0.04556112  0.33488662  0.87800400     0.05700
C857        C  0.04669942  0.35724651  0.91006739    -0.31300
O858        O  0.12084069  0.42909722  0.90652304    -0.23200
C859        C  0.14263493  0.42975401  0.87661069    -0.03200
C860        C  0.14576527  0.40436877  0.85137397    -0.17600
H861        H  0.12261966  0.35013446  0.82131093     0.20400
H862        H  0.07233370  0.40752076  0.94571742     0.18800
H863        H  0.02955342  0.36556658  0.93168040     0.18700
H864        H  0.16005844  0.40017173  0.82221464     0.14600
C865        C  0.89849521  0.16748413  0.82801139     0.30000
C866        C  0.89361415  0.13817387  0.83583219    -0.36300
C867        C  0.86981333  0.12633182  0.81285095     0.16000
C868        C  0.85240960  0.14214204  0.78357655     0.21800
C869        C  0.85706661  0.17137905  0.77625742    -0.34400
C870        C  0.88049488  0.18324109  0.79967114     0.15900
O871        O  0.91897970  0.18328601  0.84670164    -0.26500
C872        C  0.91372274  0.20943805  0.83022366     0.05700
C873        C  0.89002910  0.21061090  0.80100736    -0.31300
O874        O  0.83249728  0.12656195  0.76330154    -0.23200
C875        C  0.83670647  0.10045119  0.78043353    -0.03200
C876        C  0.85957530  0.09901171  0.81162933    -0.17600
H877        H  0.90734753  0.12551957  0.85824125     0.20400
H878        H  0.84341084  0.18400781  0.75366844     0.18800
H879        H  0.88076519  0.22918396  0.78416804     0.18700
H880        H  0.86840535  0.08026317  0.82855008     0.14600
C881        C  0.08554608  0.12841757  0.36510559     0.30000
C882        C  0.11102404  0.11869423  0.34398076    -0.36300
C883        C  0.12215171  0.09275520  0.36143168     0.16000
C884        C  0.10894491  0.07760778  0.39709279     0.21800
C885        C  0.08408328  0.08760090  0.41882542    -0.34400
C886        C  0.07304109  0.11327212  0.40143914     0.15900
O887        O  0.06909152  0.14956657  0.35001903    -0.26500
C888        C  0.04592054  0.14777071  0.37724510     0.05700
C889        C  0.04745066  0.12572494  0.40994642    -0.31300
O890        O  0.12028777  0.05222733  0.40376865    -0.23200
C891        C  0.14153744  0.05097353  0.37280569    -0.03200
C892        C  0.14391607  0.07568391  0.34551156    -0.17600
H893        H  0.12044302  0.12955014  0.31407747     0.20400
H894        H  0.07298441  0.07515383  0.44531148     0.18800
H895        H  0.03081646  0.11820814  0.43342725     0.18700
H896        H  0.15775465  0.07934106  0.31554798     0.14600
C897        C  0.81205977  0.07776788  0.25301343     0.30000
C898        C  0.84067520  0.08462042  0.24275778    -0.36300
C899        C  0.85209922  0.10822582  0.26711236     0.16000
C900        C  0.83653637  0.12361924  0.29970290     0.21800
C901        C  0.80810360  0.11689114  0.30970709    -0.34400
C902        C  0.79668042  0.09366364  0.28516396     0.15900
O903        O  0.79633847  0.05770103  0.23276101    -0.26500
C904        C  0.77067641  0.06110063  0.25233060     0.05700
C905        C  0.76978837  0.08308882  0.28508287    -0.31300
O906        O  0.85160676  0.14376299  0.32036397    -0.23200
C907        C  0.87719061  0.14170209  0.30048124    -0.03200
C908        C  0.87876248  0.12005649  0.26679747    -0.17600
H909        H  0.85304867  0.07261051  0.21736707     0.20400
H910        H  0.79567952  0.12901305  0.33489843     0.18800
H911        H  0.75147877  0.09106106  0.30430102     0.18700
H912        H  0.89729044  0.11293256  0.24727533     0.14600
C913        C  0.90766072  0.08395520  0.49451092     0.30000
C914        C  0.88731102  0.06254619  0.50284381    -0.36300
C915        C  0.88115244  0.05678591  0.55021669     0.16000
C916        C  0.89485093  0.07041330  0.58694003     0.21800
C917        C  0.91545574  0.09155454  0.57860139    -0.34400
C918        C  0.92085381  0.09805124  0.53125381     0.15900
O919        O  0.91331785  0.09569122  0.45335066    -0.26500
C920        C  0.92997139  0.11778059  0.46393336     0.05700
C921        C  0.93544468  0.12029884  0.51180844    -0.31300
O922        O  0.88341386  0.06435143  0.62814734    -0.23200
C923        C  0.86192260  0.04696756  0.61766105    -0.03200
C924        C  0.85948733  0.04142470  0.56977016    -0.17600
H925        H  0.87544888  0.05275354  0.47442754     0.20400
H926        H  0.92487473  0.10370899  0.60704130     0.18800
H927        H  0.94674579  0.13724922  0.52983387     0.18700
H928        H  0.84283777  0.02967952  0.55181323     0.14600
C929        C  0.99497949  0.22104097  0.14681435     0.30000
C930        C  0.00469109  0.24099441  0.11342318    -0.36300
C931        C  0.99353092  0.23823344  0.06784211     0.16000
C932        C  0.97372173  0.21756975  0.05621338     0.21800
C933        C  0.96470740  0.19703744  0.08920747    -0.34400
C934        C  0.97626998  0.19949226  0.13459379     0.15900
O935        O  0.00042707  0.22145571  0.19236700    -0.26500
C936        C  0.98566750  0.19942123  0.20941244     0.05700
C937        C  0.97037225  0.18482249  0.17504310    -0.31300
O938        O  0.96361991  0.22094273  0.01325185    -0.23200
C939        C  0.97762192  0.24362820  0.99676887    -0.03200
C940        C  0.99674292  0.25512107  0.02896854    -0.17600
H941        H  0.01903191  0.25820821  0.12282602     0.20400
H942        H  0.94888788  0.18100431  0.08062040     0.18800
H943        H  0.95537313  0.16744204  0.17985324     0.18700
H944        H  0.00955021  0.27427305  0.02536990     0.14600
C945        C  0.97376749  0.28188874  0.63822819     0.30000
C946        C  0.95892948  0.28362231  0.59550238    -0.36300
C947        C  0.96860745  0.26572237  0.55924040     0.16000
C948        C  0.99173551  0.24770899  0.56400174     0.21800
C949        C  0.00658902  0.24592348  0.60688864    -0.34400
C950        C  0.99648762  0.26340939  0.64360343     0.15900
O951        O  0.96664509  0.29478018  0.67789754    -0.26500
C952        C  0.98487387  0.28428908  0.70928025     0.05700
C953        C  0.00382680  0.26458634  0.69001321    -0.31300
O954        O  0.99605170  0.23181839  0.52605832    -0.23200
C955        C  0.97514304  0.23959870  0.49703239    -0.03200
C956        C  0.95749315  0.26054539  0.51593621    -0.17600
H957        H  0.94031391  0.29706812  0.59145704     0.20400
H958        H  0.02399182  0.23104823  0.61192256     0.18800
H959        H  0.01966179  0.25187894  0.70816251     0.18700
H960        H  0.93862499  0.26995690  0.50042890     0.14600
C961        C  0.86585890  0.57633922  0.18472451     0.30000
C962        C  0.89238943  0.58451854  0.16669444    -0.36300
C963        C  0.90338492  0.61035432  0.18330080     0.16000
C964        C  0.88928480  0.62747620  0.21531000     0.21800
C965        C  0.86211134  0.61956207  0.23261530    -0.34400
C966        C  0.85105894  0.59329778  0.21613895     0.15900
O967        O  0.85426433  0.55099527  0.17921641    -0.26500
C968        C  0.83135178  0.55137208  0.20678080     0.05700
C969        C  0.82796670  0.57732818  0.23042427    -0.31300
O970        O  0.90557058  0.64879460  0.23052095    -0.23200
C971        C  0.93023267  0.64497471  0.20775085    -0.03200
C972        C  0.92983562  0.62150912  0.17786043    -0.17600
H973        H  0.90461793  0.57059881  0.14387347     0.20400
H974        H  0.85128256  0.63195953  0.25937083     0.18800
H975        H  0.81269096  0.58244575  0.25776244     0.18700
H976        H  0.94740085  0.61258278  0.15788670     0.14600
C977        C  0.66410947  0.40247959  0.25381375     0.30000
C978        C  0.63505443  0.39688808  0.24573203    -0.36300
C979        C  0.62365680  0.37280876  0.26879625     0.16000
C980        C  0.63958963  0.35578864  0.29851451     0.21800
C981        C  0.66862645  0.36111391  0.30604145    -0.34400
C982        C  0.68007430  0.38484203  0.28248417     0.15900
O983        O  0.67950960  0.42327055  0.23485308    -0.26500
C984        C  0.70565766  0.41859843  0.25143346     0.05700
C985        C  0.70718496  0.39498357  0.28108894    -0.31300
O986        O  0.62423224  0.33576493  0.31926876    -0.23200
C987        C  0.59818288  0.33955367  0.30194040    -0.03200
C988        C  0.59658611  0.36215209  0.27006550    -0.17600
H989        H  0.62224212  0.41033388  0.22308156     0.20400
H990        H  0.68139071  0.34777681  0.32895150     0.18800
H991        H  0.72585823  0.38607593  0.29799491     0.18700
H992        H  0.57780793  0.37071936  0.25302404     0.14600
C993        C  0.85435363  0.34043892  0.27686446     0.30000
C994        C  0.86131993  0.31204088  0.26623973    -0.36300
C995        C  0.88370245  0.30010861  0.29225378     0.16000
C996        C  0.89870181  0.31515407  0.32591278     0.21800
C997        C  0.89165738  0.34365543  0.33664495    -0.34400
C998        C  0.86878986  0.35544987  0.31121425     0.15900
O999        O  0.83461640  0.35589257  0.25589435    -0.26500
C1000       C  0.83598987  0.38107808  0.27749776     0.05700
C1001       C  0.85678529  0.38202723  0.31245251    -0.31300
O1002       O  0.91809729  0.29922294  0.34721587    -0.23200
C1003       C  0.91515211  0.27365059  0.32712841    -0.03200
C1004       C  0.89410826  0.27301632  0.29277579    -0.17600
H1005       H  0.84985092  0.29996194  0.23983847     0.20400
H1006       H  0.90289472  0.35563217  0.36342941     0.18800
H1007       H  0.86320126  0.40013415  0.33367145     0.18700
H1008       H  0.88677465  0.25484400  0.27252012     0.14600
C1009       C  0.90799994  0.39809045  0.99704538     0.30000
C1010       C  0.88797523  0.41983747  0.00480621    -0.36300
C1011       C  0.88122623  0.42552750  0.05197048     0.16000
C1012       C  0.89405557  0.41147721  0.08910917     0.21800
C1013       C  0.91430888  0.38990541  0.08135862    -0.34400
C1014       C  0.92032015  0.38352753  0.03412383     0.15900
O1015       O  0.91417486  0.38662084  0.95591950    -0.26500
C1016       C  0.93031490  0.36421670  0.96673832     0.05700
C1017       C  0.93490826  0.36121865  0.01485627    -0.31300
O1018       O  0.88221787  0.41777608  0.12993887    -0.23200
C1019       C  0.86133651  0.43576311  0.11876990    -0.03200
C1020       C  0.85970802  0.44139588  0.07079135    -0.17600
H1021       H  0.87681795  0.43005152  0.97600948     0.20400
H1022       H  0.92308223  0.37747413  0.11005248     0.18800
H1023       H  0.94566683  0.34398231  0.03304849     0.18700
H1024       H  0.84364703  0.45360113  0.05224494     0.14600
C1025       C  0.62286557  0.58942075  0.71587741     0.30000
C1026       C  0.61401610  0.61586899  0.73496984    -0.36300
C1027       C  0.58757317  0.62649956  0.71887413     0.16000
C1028       C  0.57125404  0.61193094  0.68634262     0.21800
C1029       C  0.58034428  0.58615425  0.66660680    -0.34400
C1030       C  0.60643088  0.57563239  0.68262313     0.15900
O1031       O  0.64445054  0.57333872  0.73042192    -0.26500
C1032       C  0.64153652  0.54915799  0.70588368     0.05700
C1033       C  0.61839617  0.54967297  0.67551427    -0.31300
O1034       O  0.54577769  0.62306572  0.68080668    -0.23200
C1035       C  0.54548584  0.64552298  0.70935824    -0.03200
C1036       C  0.57104586  0.64898043  0.73388855    -0.17600
H1037       H  0.62592248  0.62642682  0.76255798     0.20400
H1038       H  0.56698786  0.57408520  0.64272638     0.18800
H1039       H  0.61003076  0.53228425  0.65447596     0.18700
H1040       H  0.57566250  0.66401385  0.76181294     0.14600
C1041       C  0.59346807  0.29688967  0.80647098     0.30000
C1042       C  0.61831040  0.30640285  0.78389488    -0.36300
C1043       C  0.62455238  0.33551637  0.78855077     0.16000
C1044       C  0.60769336  0.35408463  0.81408393     0.21800
C1045       C  0.58258540  0.34456575  0.83644379    -0.34400
C1046       C  0.57608291  0.31537580  0.83121106     0.15900
O1047       O  0.58433527  0.27031349  0.80786115    -0.26500
C1048       C  0.56047610  0.27163734  0.83311681     0.05700
C1049       C  0.55405880  0.29919505  0.84840006    -0.31300
O1050       O  0.61695724  0.38073832  0.81164622    -0.23200
C1051       C  0.63988604  0.37912024  0.78394827    -0.03200
C1052       C  0.64560935  0.35149244  0.76868583    -0.17600
H1053       H  0.63175984  0.29208605  0.76378375     0.20400
H1054       H  0.56890522  0.35896203  0.85594732     0.18800
H1055       H  0.53669185  0.30596079  0.87094705     0.18700
H1056       H  0.66194312  0.34450433  0.74427138     0.14600
C1057       C  0.55191144  0.38790503  0.52622496     0.30000
C1058       C  0.55493854  0.39336832  0.57457495    -0.36300
C1059       C  0.57664901  0.41258010  0.58708378     0.16000
C1060       C  0.59426362  0.42541665  0.55421698     0.21800
C1061       C  0.59014742  0.42123269  0.50580246    -0.34400
C1062       C  0.56837922  0.40212865  0.49328626     0.15900
O1063       O  0.53695659  0.36687522  0.50746108    -0.26500
C1064       C  0.54336076  0.36818199  0.46182060     0.05700
C1065       C  0.56243137  0.38998387  0.45089145    -0.31300
O1066       O  0.61643652  0.43811873  0.57365686    -0.23200
C1067       C  0.61263574  0.43393793  0.61957272    -0.03200
C1068       C  0.58800078  0.41859251  0.63006909    -0.17600
H1069       H  0.54291210  0.38159807  0.60078285     0.20400
H1070       H  0.60449405  0.43030890  0.47986112     0.18800
H1071       H  0.57293765  0.39398230  0.41752220     0.18700
H1072       H  0.58122647  0.41042813  0.66399365     0.14600
C1073       C  0.80955048  0.40303542  0.75883101     0.30000
C1074       C  0.83833445  0.39700925  0.74923441    -0.36300
C1075       C  0.84983994  0.37308666  0.77234286     0.16000
C1076       C  0.83428420  0.35661443  0.80354864     0.21800
C1077       C  0.80549687  0.36245916  0.81283686    -0.34400
C1078       C  0.79390107  0.38604311  0.78916146     0.15900
O1079       O  0.79398602  0.42333227  0.73912865    -0.26500
C1080       C  0.76801768  0.41902414  0.75681485     0.05700
C1081       C  0.76677249  0.39618239  0.78816784    -0.31300
O1082       O  0.84976313  0.33651836  0.82367279    -0.23200
C1083       C  0.87549956  0.33979059  0.80456648    -0.03200
C1084       C  0.87674352  0.36205794  0.77203440    -0.17600
H1085       H  0.85081305  0.40990345  0.72512842     0.20400
H1086       H  0.79298749  0.34948675  0.83679991     0.18800
H1087       H  0.74820740  0.38749405  0.80587319     0.18700
H1088       H  0.89524658  0.37019008  0.75348168     0.14600
C1089       C  0.71530766  0.50084986  0.93554143     0.30000
C1090       C  0.73448792  0.51171065  0.96904088    -0.36300
C1091       C  0.73298774  0.49942398  0.01411505     0.16000
C1092       C  0.71421585  0.47762685  0.02504895     0.21800
C1093       C  0.69439617  0.46751534  0.99211694    -0.34400
C1094       C  0.69557027  0.48011237  0.94738696     0.15900
O1095       O  0.71510584  0.50682108  0.89011110    -0.26500
C1096       C  0.69442091  0.49029687  0.87307361     0.05700
C1097       C  0.68136918  0.47341921  0.90712324    -0.31300
O1098       O  0.71862235  0.46693408  0.06731851    -0.23200
C1099       C  0.74006105  0.48245557  0.08418198    -0.03200
C1100       C  0.74971253  0.50324089  0.05290744    -0.17600
H1101       H  0.75033351  0.52765744  0.96001141     0.20400
H1102       H  0.67992040  0.45013483  0.00018486     0.18800
H1103       H  0.66549576  0.45687866  0.90209549     0.18700
H1104       H  0.76761090  0.51765617  0.05701619     0.14600
C1105       C  0.73873173  0.49577802  0.51691755     0.30000
C1106       C  0.73460377  0.50889855  0.47289494    -0.36300
C1107       C  0.75363180  0.50083974  0.43694956     0.16000
C1108       C  0.77567469  0.48176985  0.44410596     0.21800
C1109       C  0.77972835  0.46862790  0.48798866    -0.34400
C1110       C  0.76029318  0.47609717  0.52350451     0.15900
O1111       O  0.72224094  0.49847887  0.55450749    -0.26500
C1112       C  0.73320598  0.47995259  0.58515839     0.05700
C1113       C  0.75679769  0.46540694  0.56769723    -0.31300
O1114       O  0.78978208  0.47586775  0.40502838    -0.23200
C1115       C  0.77645014  0.49108473  0.37221456    -0.03200
C1116       C  0.75373265  0.50696130  0.38999771    -0.17600
H1117       H  0.71703937  0.52339602  0.46655626     0.20400
H1118       H  0.79611483  0.45268568  0.49346185     0.18800
H1119       H  0.76908263  0.44877989  0.58474844     0.18700
H1120       H  0.73865784  0.51996591  0.37068071     0.14600
loop_ 
_geom_bond_atom_site_label_1 
_geom_bond_atom_site_label_2 
_geom_bond_distance 
_geom_bond_site_symmetry_2 
_ccdc_geom_bond_type 
O1          Cr19   1.965       .  S
O1            C9   1.258       .  A
O2          Cr19   2.042       .  S
O2            C3   1.274       .  A
C3            O4   1.259       .  A
C3         C1080   1.469       .  S
O4          Cr20   1.961       .  S
O5          Cr20   2.005       .  S
O5            C6   1.263       .  A
C6            O7   1.257       .  A
C6         C1051   1.469       .  S
O7          Cr21   1.978       .  S
O8          Cr21   2.011       .  S
O8            C9   1.268       .  A
C9         C1096   1.465       .  S
O10         Cr19   2.029       .  S
O10          C18   1.266       .  A
O11         Cr19   1.992       .  S
O11          C12   1.258       .  A
C12          O13   1.262       .  A
C12        C1112   1.470       .  S
O13         Cr20   2.010       .  S
O14         Cr20   1.980       .  S
O14          C15   1.263       .  A
C15          O16   1.269       .  A
C15        C1067   1.467       .  S
O16         Cr21   2.017       .  S
O17         Cr21   1.961       .  S
O17          C18   1.256       .  A
C18        C1032   1.474       .  S
Cr19         O22   1.780       .  S
Cr20         O22   1.765       .  S
Cr21         O22   1.768       .  S
O23         Cr41   2.047       .  S
O23          C31   1.276       .  A
O24         Cr41   1.962       .  S
O24          C25   1.258       .  A
C25          O26   1.269       .  A
C25        C1115   1.470       .  S
O26         Cr42   2.019       .  S
O27         Cr42   1.978       .  S
O27          C28   1.257       .  A
C28          O29   1.262       .  A
C28        C1000   1.470       .  S
O29         Cr43   2.008       .  S
O30         Cr43   1.958       .  S
O30          C31   1.260       .  A
C31         C984   1.471       .  S
O32         Cr41   1.988       .  S
O32          C40   1.257       .  A
O33         Cr41   2.033       .  S
O33          C34   1.268       .  A
C34          O35   1.255       .  A
C34         C968   1.473       .  S
O35         Cr42   1.961       .  S
O36         Cr42   2.022       .  S
O36          C37   1.270       .  A
C37          O38   1.263       .  A
C37        C1019   1.465       .  S
O38         Cr43   1.976       .  S
O39         Cr43   2.008       .  S
O39          C40   1.261       .  A
C40        C1099   1.466       .  S
Cr41         O44   1.779       .  S
Cr42         O44   1.768       .  S
Cr43         O44   1.766       .  S
O45         Cr63   1.969       .  S
O45          C53   1.259       .  A
O46         Cr63   2.039       .  S
O46          C47   1.273       .  A
C47          O48   1.261       .  A
C47        C1003   1.470       .  S
O48         Cr64   1.967       .  S
O49         Cr64   2.010       .  S
O49          C50   1.264       .  A
C50          O51   1.256       .  A
C50         C907   1.470       .  S
O51         Cr65   1.974       .  S
O52         Cr65   2.015       .  S
O52          C53   1.269       .  A
C53         C936   1.470       .  S
O54         Cr63   2.030   1_455  S
O54          C62   1.266       .  A
O55         Cr63   1.997       .  S
O55          C56   1.260       .  A
C56          O57   1.263       .  A
C56         C955   1.474       .  S
O57         Cr64   2.008       .  S
O58         Cr64   1.977       .  S
O58          C59   1.262       .  A
C59          O60   1.267       .  A
C59         C920   1.462       .  S
O60         Cr65   2.015       .  S
O61         Cr65   1.962       .  S
O61          C62   1.255   1_655  A
C62         C888   1.473       .  S
Cr63         O66   1.778       .  S
Cr64         O66   1.763       .  S
Cr65         O66   1.770       .  S
O67         Cr85   2.042       .  S
O67          C75   1.274       .  A
O68         Cr85   1.965       .  S
O68          C69   1.259       .  A
C69          O70   1.269       .  A
C69         C952   1.469       .  S
O70         Cr86   2.019       .  S
O71         Cr86   1.976       .  S
O71          C72   1.257       .  A
C72          O73   1.263       .  A
C72        C1083   1.470       .  S
O73         Cr87   2.011       .  S
O74         Cr87   1.959       .  S
O74          C75   1.259       .  A
C75         C872   1.468       .  S
O76         Cr85   1.988       .  S
O76          C84   1.258       .  A
O77         Cr85   2.029   1_455  S
O77          C78   1.266       .  A
C78          O79   1.256   1_455  A
C78         C856   1.474       .  S
O79         Cr86   1.962       .  S
O80         Cr86   2.019       .  S
O80          C81   1.269       .  A
C81          O82   1.262       .  A
C81        C1016   1.465       .  S
O82         Cr87   1.976       .  S
O83         Cr87   2.012       .  S
O83          C84   1.262       .  A
C84         C939   1.468       .  S
Cr85         O88   1.777       .  S
Cr86         O88   1.768       .  S
Cr87         O88   1.765       .  S
O89        Cr107   2.046   1_545  S
O89          C97   1.275       .  A
O90        Cr107   1.966       .  S
O90          C91   1.259       .  A
C91          O92   1.270       .  A
C91         C840   1.471       .  S
O92        Cr108   2.017   1_565  S
O93        Cr108   1.977       .  S
O93          C94   1.257       .  A
C94          O95   1.264       .  A
C94         C792   1.474       .  S
O95        Cr109   2.016       .  S
O96        Cr109   1.956       .  S
O96          C97   1.260       .  A
C97         C904   1.469       .  S
O98        Cr107   1.994       .  S
O98         C106   1.257   1_565  A
O99        Cr107   2.026       .  S
O99         C100   1.266       .  A
C100        O101   1.254       .  A
C100        C776   1.471       .  S
O101       Cr108   1.959   1_565  S
O102       Cr108   2.013       .  S
O102        C103   1.268       .  A
C103        O104   1.261       .  A
C103        C808   1.457       .  S
O104       Cr109   1.969       .  S
O105       Cr109   2.011       .  S
O105        C106   1.262       .  A
C106        C824   1.473       .  S
Cr107       O110   1.778   1_565  S
Cr108       O110   1.771       .  S
Cr109       O110   1.763       .  S
O111       Cr129   1.966       .  S
O111        C119   1.259       .  A
O112       Cr129   2.045   1_545  S
O112        C113   1.275       .  A
C113        O114   1.260       .  A
C113        C760   1.469       .  S
O114       Cr130   1.959       .  S
O115       Cr130   2.011       .  S
O115        C116   1.263       .  A
C116        O117   1.257       .  A
C116        C875   1.469       .  S
O117       Cr131   1.974       .  S
O118       Cr131   2.021   1_565  S
O118        C119   1.270       .  A
C119        C827   1.473       .  S
O120       Cr129   2.027       .  S
O120        C128   1.266       .  A
O121       Cr129   1.991       .  S
O121        C122   1.257   1_565  A
C122        O123   1.261       .  A
C122        C843   1.469       .  S
O123       Cr130   2.012       .  S
O124       Cr130   1.973       .  S
O124        C125   1.262       .  A
C125        O126   1.269       .  A
C125        C923   1.461       .  S
O126       Cr131   2.018       .  S
O127       Cr131   1.958   1_565  S
O127        C128   1.254       .  A
C128        C747   1.472       .  S
Cr129       O132   1.777   1_565  S
Cr130       O132   1.765       .  S
Cr131       O132   1.769       .  S
O133       Cr151   2.042       .  S
O133        C141   1.275       .  A
O134       Cr151   1.967       .  S
O134        C135   1.259       .  A
C135        O136   1.269       .  A
C135        C731   1.470       .  S
O136       Cr152   2.017       .  S
O137       Cr152   1.974       .  S
O137        C138   1.257       .  A
C138        O139   1.264       .  A
C138        C763   1.471       .  S
O139       Cr153   2.015       .  S
O140       Cr153   1.960       .  S
O140        C141   1.259       .  A
C141       C1048   1.468       .  S
O142       Cr151   1.994       .  S
O142        C150   1.259       .  A
O143       Cr151   2.025       .  S
O143        C144   1.266       .  A
C144        O145   1.255       .  A
C144        C696   1.470       .  S
O145       Cr152   1.961       .  S
O146       Cr152   2.015       .  S
O146        C147   1.267       .  A
C147        O148   1.261       .  A
C147        C811   1.458       .  S
O148       Cr153   1.971       .  S
O149       Cr153   2.013       .  S
O149        C150   1.262       .  A
C150        C715   1.472       .  S
Cr151       O154   1.776       .  S
Cr152       O154   1.770       .  S
Cr153       O154   1.764       .  S
O155       Cr173   1.967       .  S
O155        C163   1.258       .  A
O156       Cr173   2.047       .  S
O156        C157   1.276       .  A
C157        O158   1.259       .  A
C157        C795   1.473       .  S
O158       Cr174   1.962       .  S
O159       Cr174   2.013       .  S
O159        C160   1.264       .  A
C160        O161   1.257       .  A
C160        C987   1.469       .  S
O161       Cr175   1.972       .  S
O162       Cr175   2.019       .  S
O162        C163   1.269       .  A
C163        C712   1.473       .  S
O164       Cr173   2.034       .  S
O164        C172   1.268       .  A
O165       Cr173   1.988       .  S
O165        C166   1.257       .  A
C166        O167   1.262       .  A
C166        C728   1.469       .  S
O167       Cr174   2.013       .  S
O168       Cr174   1.984       .  S
O168        C169   1.263       .  A
C169        O170   1.269       .  A
C169       C1064   1.469       .  S
O170       Cr175   2.021       .  S
O171       Cr175   1.956       .  S
O171        C172   1.255       .  A
C172        C680   1.474       .  S
Cr173       O176   1.779       .  S
Cr174       O176   1.766       .  S
Cr175       O176   1.769       .  S
O177       Cr195   2.047       .  S
O177        C185   1.276       .  A
O178       Cr195   1.967       .  S
O178        C179   1.258       .  A
C179        O180   1.269       .  A
C179        C632   1.467       .  S
O180       Cr196   2.014       .  S
O181       Cr196   1.976       .  S
O181        C182   1.256       .  A
C182        O183   1.263       .  A
C182        C600   1.468       .  S
O183       Cr197   2.006       .  S
O184       Cr197   1.962       .  S
O184        C185   1.260       .  A
C185        C667   1.472       .  S
O186       Cr195   1.994       .  S
O186        C194   1.258       .  A
O187       Cr195   2.031   1_545  S
O187        C188   1.268       .  A
C188        O189   1.255       .  A
C188        C891   1.472       .  S
O189       Cr196   1.963   1_545  S
O190       Cr196   2.016       .  S
O190        C191   1.269       .  A
C191        O192   1.261       .  A
C191        C616   1.462       .  S
O192       Cr197   1.975       .  S
O193       Cr197   2.008       .  S
O193        C194   1.261       .  A
C194        C651   1.468       .  S
Cr195       O198   1.776       .  S
Cr196       O198   1.769       .  S
Cr197       O198   1.765       .  S
O199       Cr217   1.962       .  S
O199        C207   1.258       .  A
O200       Cr217   2.040       .  S
O200        C201   1.273       .  A
C201        O202   1.259       .  A
C201        C555   1.470       .  S
O202       Cr218   1.961       .  S
O203       Cr218   2.002       .  S
O203        C204   1.262       .  A
C204        O205   1.257       .  A
C204        C571   1.462       .  S
O205       Cr219   1.972       .  S
O206       Cr219   2.019       .  S
O206        C207   1.270       .  A
C207        C648   1.468       .  S
O208       Cr217   2.027   1_545  S
O208        C216   1.266       .  A
O209       Cr217   1.989       .  S
O209        C210   1.259       .  A
C210        O211   1.262       .  A
C210        C635   1.467   1_556  S
O211       Cr218   2.008       .  S
O212       Cr218   1.976       .  S
O212        C213   1.262       .  A
C213        O214   1.268       .  A
C213        C584   1.463       .  S
O214       Cr219   2.018       .  S
O215       Cr219   1.962   1_545  S
O215        C216   1.254       .  A
C216        C699   1.468       .  S
Cr217       O220   1.777       .  S
Cr218       O220   1.763       .  S
Cr219       O220   1.769       .  S
O221       Cr239   2.042       .  S
O221        C229   1.275       .  A
O222       Cr239   1.966       .  S
O222        C223   1.259       .  A
C223        O224   1.270       .  A
C223        C536   1.471       .  S
O224       Cr240   2.017       .  S
O225       Cr240   1.980       .  S
O225        C226   1.257       .  A
C226        O227   1.263       .  A
C226        C488   1.472       .  S
O227       Cr241   2.008       .  S
O228       Cr241   1.952       .  S
O228        C229   1.259       .  A
C229        C568   1.465       .  S
O230       Cr239   1.996       .  S
O230        C238   1.259       .  A
O231       Cr239   2.029       .  S
O231        C232   1.267       .  A
C232        O233   1.255       .  A
C232       C1035   1.472       .  S
O233       Cr240   1.962       .  S
O234       Cr240   2.019       .  S
O234        C235   1.270       .  A
C235        O236   1.261       .  A
C235        C507   1.460       .  S
O236       Cr241   1.969       .  S
O237       Cr241   2.010       .  S
O237        C238   1.261       .  A
C238        C523   1.472       .  S
Cr239       O242   1.778       .  S
Cr240       O242   1.769       .  S
Cr241       O242   1.766       .  S
O243       Cr261   1.964       .  S
O243        C251   1.259       .  A
O244       Cr261   2.046       .  S
O244        C245   1.276       .  A
C245        O246   1.260       .  A
C245        C475   1.469       .  S
O246       Cr262   1.955       .  S
O247       Cr262   2.017       .  S
O247        C248   1.264       .  A
C248        O249   1.258       .  A
C248        C664   1.476       .  S
O249       Cr263   1.980       .  S
O250       Cr263   2.020       .  S
O250        C251   1.270       .  A
C251        C520   1.472       .  S
O252       Cr261   2.025       .  S
O252        C260   1.266       .  A
O253       Cr261   1.989       .  S
O253        C254   1.256       .  A
C254        O255   1.261       .  A
C254        C539   1.470       .  S
O255       Cr262   2.015       .  S
O256       Cr262   1.972       .  S
O256        C257   1.261       .  A
C257        O258   1.271       .  A
C257        C587   1.463       .  S
O258       Cr263   2.020       .  S
O259       Cr263   1.958       .  S
O259        C260   1.254       .  A
C260        C779   1.468       .  S
Cr261       O264   1.778       .  S
Cr262       O264   1.766       .  S
Cr263       O264   1.769       .  S
O265       Cr283   1.965       .  S
O265        C273   1.259       .  A
O266       Cr283   2.043   1_455  S
O266        C267   1.274       .  A
C267        O268   1.257       .  A
C267        C603   1.466       .  S
O268       Cr284   1.958       .  S
O269       Cr284   2.011       .  S
O269        C270   1.265       .  A
C270        O271   1.256       .  A
C270        C408   1.468       .  S
O271       Cr285   1.973       .  S
O272       Cr285   2.020   1_655  S
O272        C273   1.269       .  A
C273        C440   1.470       .  S
O274       Cr283   2.032       .  S
O274        C282   1.267       .  A
O275       Cr283   1.988       .  S
O275        C276   1.258   1_655  A
C276        O277   1.263       .  A
C276        C459   1.469   1_455  S
O277       Cr284   2.015       .  S
O278       Cr284   1.975       .  S
O278        C279   1.261       .  A
C279        O280   1.269       .  A
C279        C427   1.465       .  S
O280       Cr285   2.019       .  S
O281       Cr285   1.960   1_655  S
O281        C282   1.255       .  A
C282        C971   1.475       .  S
Cr283       O286   1.777   1_655  S
Cr284       O286   1.765       .  S
Cr285       O286   1.768       .  S
O287       Cr305   2.045   1_455  S
O287        C295   1.275       .  A
O288       Cr305   1.966       .  S
O288        C289   1.258       .  A
C289        O290   1.269       .  A
C289        C456   1.471       .  S
O290       Cr306   2.019   1_655  S
O291       Cr306   1.975       .  S
O291        C292   1.258       .  A
C292        O293   1.263       .  A
C292        C552   1.468       .  S
O293       Cr307   2.008       .  S
O294       Cr307   1.960       .  S
O294        C295   1.260       .  A
C295        C395   1.471       .  S
O296       Cr305   1.991       .  S
O296        C304   1.257   1_655  A
O297       Cr305   2.032       .  S
O297        C298   1.268       .  A
C298        O299   1.253       .  A
C298        C744   1.470       .  S
O299       Cr306   1.958   1_655  S
O300       Cr306   2.014       .  S
O300        C301   1.268       .  A
C301        O302   1.262       .  A
C301        C619   1.462       .  S
O302       Cr307   1.978       .  S
O303       Cr307   2.008       .  S
O303        C304   1.261       .  A
C304        C443   1.469   1_455  S
Cr305       O308   1.777   1_655  S
Cr306       O308   1.769       .  S
Cr307       O308   1.765       .  S
O309       Cr327   2.046       .  S
O309        C317   1.276       .  A
O310       Cr327   1.963       .  S
O310        C311   1.258       .  A
C311        O312   1.270       .  A
C311        C376   1.469       .  S
O312       Cr328   2.019       .  S
O313       Cr328   1.975       .  S
O313        C314   1.257       .  A
C314        O315   1.264       .  A
C314        C472   1.469       .  S
O315       Cr329   2.011       .  S
O316       Cr329   1.957       .  S
O316        C317   1.258       .  A
C317        C411   1.469       .  S
O318       Cr327   1.991       .  S
O318        C326   1.259       .  A
O319       Cr327   2.031       .  S
O319        C320   1.267       .  A
C320        O321   1.254       .  A
C320        C683   1.471       .  S
O321       Cr328   1.961       .  S
O322       Cr328   2.017       .  S
O322        C323   1.269       .  A
C323        O324   1.260       .  A
C323        C504   1.459       .  S
O324       Cr329   1.971       .  S
O325       Cr329   2.014       .  S
O325        C326   1.262       .  A
C326        C360   1.471       .  S
Cr327       O330   1.776       .  S
Cr328       O330   1.770       .  S
Cr329       O330   1.763       .  S
O331       Cr349   1.969       .  S
O331        C339   1.259       .  A
O332       Cr349   2.040       .  S
O332        C333   1.274       .  A
C333        O334   1.260       .  A
C333        C491   1.471       .  S
O334       Cr350   1.966       .  S
O335       Cr350   2.009       .  S
O335        C336   1.264       .  A
C336        O337   1.258       .  A
C336        C392   1.469       .  S
O337       Cr351   1.975       .  S
O338       Cr351   2.018       .  S
O338        C339   1.270       .  A
C339        C363   1.470       .  S
O340       Cr349   2.028       .  S
O340        C348   1.266       .  A
O341       Cr349   1.991       .  S
O341        C342   1.259       .  A
C342        O343   1.262       .  A
C342        C379   1.467   1_556  S
O343       Cr350   2.010       .  S
O344       Cr350   1.980       .  S
O344        C345   1.261       .  A
C345        O346   1.268       .  A
C345        C424   1.464       .  S
O346       Cr351   2.016       .  S
O347       Cr351   1.963       .  S
O347        C348   1.255       .  A
C348        C859   1.470       .  S
Cr349       O352   1.778       .  S
Cr350       O352   1.765       .  S
Cr351       O352   1.769       .  S
C353        C358   1.380       .  A
C353        C354   1.404       .  A
C353        O359   1.319       .  A
C354        C355   1.403       .  A
C354        H365   1.082       .  S
C355        C364   1.364       .  A
C355        C356   1.380       .  A
C356        C357   1.406       .  A
C356        O362   1.320       .  A
C357        C358   1.405       .  A
C357        H366   1.082       .  S
C358        C361   1.366       .  A
O359        C360   1.331       .  A
C360        C361   1.392       .  A
C361        H367   1.082       .  S
O362        C363   1.332       .  A
C363        C364   1.390       .  A
C364        H368   1.083       .  S
C369        C374   1.380       .  A
C369        C370   1.406       .  A
C369        O375   1.319       .  A
C370        C371   1.404       .  A
C370        H381   1.082       .  S
C371        C380   1.366       .  A
C371        C372   1.380       .  A
C372        C373   1.404       .  A
C372        O378   1.318       .  A
C373        C374   1.402       .  A
C373        H382   1.082       .  S
C374        C377   1.364       .  A
O375        C376   1.332       .  A
C376        C377   1.390       .  A
C377        H383   1.083       .  S
O378        C379   1.330       .  A
C379        C380   1.391       .  A
C380        H384   1.083       .  S
C385        C390   1.381       .  A
C385        C386   1.400       .  A
C385        O391   1.317       .  A
C386        C387   1.400       .  A
C386        H397   1.083       .  S
C387        C396   1.357       .  A
C387        C388   1.380       .  A
C388        C389   1.407       .  A
C388        O394   1.324       .  A
C389        C390   1.407       .  A
C389        H398   1.082       .  S
C390        C393   1.365       .  A
O391        C392   1.329       .  A
C392        C393   1.394       .  A
C393        H399   1.083       .  S
O394        C395   1.333       .  A
C395        C396   1.389       .  A
C396        H400   1.083       .  S
C401        C406   1.380       .  A
C401        C402   1.407       .  A
C401        O407   1.320       .  A
C402        C403   1.406       .  A
C402        H413   1.082       .  S
C403        C412   1.368       .  A
C403        C404   1.380       .  A
C404        C405   1.401       .  A
C404        O410   1.315       .  A
C405        C406   1.399       .  A
C405        H414   1.082       .  S
C406        C409   1.360       .  A
O407        C408   1.332       .  A
C408        C409   1.389       .  A
C409        H415   1.083       .  S
O410        C411   1.330       .  A
C411        C412   1.393       .  A
C412        H416   1.082       .  S
C417        C422   1.381   1_554  A
C417        C418   1.403       .  A
C417        O423   1.319       .  A
C418        C419   1.402       .  A
C418        H429   1.082       .  S
C419        C428   1.361       .  A
C419        C420   1.381       .  A
C420        C421   1.402       .  A
C420        O426   1.318       .  A
C421        C422   1.401   1_554  A
C421        H430   1.083   1_554  S
C422        C425   1.360       .  A
O423        C424   1.330   1_554  A
C424        C425   1.389       .  A
C425        H431   1.083       .  S
O426        C427   1.329       .  A
C427        C428   1.390       .  A
C428        H432   1.083       .  S
C433        C438   1.381       .  A
C433        C434   1.403   1_655  A
C433        O439   1.321   1_655  A
C434        C435   1.403       .  A
C434        H445   1.082       .  S
C435        C444   1.360       .  A
C435        C436   1.381   1_455  A
C436        C437   1.404       .  A
C436        O442   1.322       .  A
C437        C438   1.405       .  A
C437        H446   1.082       .  S
C438        C441   1.362       .  A
O439        C440   1.330   1_455  A
C440        C441   1.392       .  A
C441        H447   1.083       .  S
O442        C443   1.331       .  A
C443        C444   1.390   1_655  A
C444        H448   1.083       .  S
C449        C454   1.380       .  A
C449        C450   1.406       .  A
C449        O455   1.319       .  A
C450        C451   1.404   1_556  A
C450        H461   1.082       .  S
C451        C460   1.366       .  A
C451        C452   1.381       .  A
C452        C453   1.404   1_654  A
C452        O458   1.319   1_655  A
C453        C454   1.403   1_455  A
C453        H462   1.082   1_556  S
C454        C457   1.364   1_655  A
O455        C456   1.332       .  A
C456        C457   1.390   1_655  A
C457        H463   1.083       .  S
O458        C459   1.331   1_455  A
C459        C460   1.391       .  A
C460        H464   1.082       .  S
C465        C470   1.381       .  A
C465        C466   1.399       .  A
C465        O471   1.317       .  A
C466        C467   1.399       .  A
C466        H477   1.082       .  S
C467        C476   1.355       .  A
C467        C468   1.380       .  A
C468        C469   1.407       .  A
C468        O474   1.324       .  A
C469        C470   1.408       .  A
C469        H478   1.082       .  S
C470        C473   1.365       .  A
O471        C472   1.329       .  A
C472        C473   1.394       .  A
C473        H479   1.082       .  S
O474        C475   1.333       .  A
C475        C476   1.389       .  A
C476        H480   1.083       .  S
C481        C486   1.380       .  A
C481        C482   1.408       .  A
C481        O487   1.322       .  A
C482        C483   1.407       .  A
C482        H493   1.082       .  S
C483        C492   1.368       .  A
C483        C484   1.380       .  A
C484        C485   1.402       .  A
C484        O490   1.316       .  A
C485        C486   1.400       .  A
C485        H494   1.083       .  S
C486        C489   1.360       .  A
O487        C488   1.333       .  A
C488        C489   1.390       .  A
C489        H495   1.083       .  S
O490        C491   1.330       .  A
C491        C492   1.393       .  A
C492        H496   1.082       .  S
C497        C502   1.381       .  A
C497        C498   1.401       .  A
C497        O503   1.317       .  A
C498        C499   1.400       .  A
C498        H509   1.083       .  S
C499        C508   1.359       .  A
C499        C500   1.381       .  A
C500        C501   1.401       .  A
C500        O506   1.317       .  A
C501        C502   1.401       .  A
C501        H510   1.082       .  S
C502        C505   1.359       .  A
O503        C504   1.329       .  A
C504        C505   1.389       .  A
C505        H511   1.083       .  S
O506        C507   1.329       .  A
C507        C508   1.389       .  A
C508        H512   1.083       .  S
C513        C518   1.381       .  A
C513        C514   1.403       .  A
C513        O519   1.321       .  A
C514        C515   1.403       .  A
C514        H525   1.082       .  S
C515        C524   1.361       .  A
C515        C516   1.381       .  A
C516        C517   1.406       .  A
C516        O522   1.323       .  A
C517        C518   1.406       .  A
C517        H526   1.082       .  S
C518        C521   1.363       .  A
O519        C520   1.330       .  A
C520        C521   1.393       .  A
C521        H527   1.083       .  S
O522        C523   1.332       .  A
C523        C524   1.391       .  A
C524        H528   1.083       .  S
C529        C534   1.380       .  A
C529        C530   1.406       .  A
C529        O535   1.319       .  A
C530        C531   1.404   1_556  A
C530        H541   1.082       .  S
C531        C540   1.365       .  A
C531        C532   1.381       .  A
C532        C533   1.404   1_554  A
C532        O538   1.319       .  A
C533        C534   1.403       .  A
C533        H542   1.082   1_556  S
C534        C537   1.364       .  A
O535        C536   1.332       .  A
C536        C537   1.390       .  A
C537        H543   1.083       .  S
O538        C539   1.331       .  A
C539        C540   1.391       .  A
C540        H544   1.082       .  S
C545        C550   1.381       .  A
C545        C546   1.400       .  A
C545        O551   1.317       .  A
C546        C547   1.400       .  A
C546        H557   1.082       .  S
C547        C556   1.356       .  A
C547        C548   1.381       .  A
C548        C549   1.407       .  A
C548        O554   1.324       .  A
C549        C550   1.407       .  A
C549        H558   1.082       .  S
C550        C553   1.365       .  A
O551        C552   1.329       .  A
C552        C553   1.393       .  A
C553        H559   1.082       .  S
O554        C555   1.332       .  A
C555        C556   1.389       .  A
C556        H560   1.083       .  S
C561        C566   1.381       .  A
C561        C562   1.405       .  A
C561        O567   1.322       .  A
C562        C563   1.405       .  A
C562        H573   1.082       .  S
C563        C572   1.363       .  A
C563        C564   1.381       .  A
C564        C565   1.398       .  A
C564        O570   1.315       .  A
C565        C566   1.398       .  A
C565        H574   1.082       .  S
C566        C569   1.354       .  A
O567        C568   1.331       .  A
C568        C569   1.389       .  A
C569        H575   1.083       .  S
O570        C571   1.328       .  A
C571        C572   1.392       .  A
C572        H576   1.082       .  S
C577        C582   1.382   1_554  A
C577        C578   1.401       .  A
C577        O583   1.317       .  A
C578        C579   1.400       .  A
C578        H589   1.082       .  S
C579        C588   1.359       .  A
C579        C580   1.381       .  A
C580        C581   1.403       .  A
C580        O586   1.318       .  A
C581        C582   1.402   1_554  A
C581        H590   1.083   1_554  S
C582        C585   1.362       .  A
O583        C584   1.328   1_554  A
C584        C585   1.390       .  A
C585        H591   1.083       .  S
O586        C587   1.330       .  A
C587        C588   1.388       .  A
C588        H592   1.083       .  S
C593        C598   1.380       .  A
C593        C594   1.407       .  A
C593        O599   1.320       .  A
C594        C595   1.406       .  A
C594        H605   1.082       .  S
C595        C604   1.368       .  A
C595        C596   1.380       .  A
C596        C597   1.400       .  A
C596        O602   1.315       .  A
C597        C598   1.399       .  A
C597        H606   1.083       .  S
C598        C601   1.359       .  A
O599        C600   1.332       .  A
C600        C601   1.389       .  A
C601        H607   1.083       .  S
O602        C603   1.329       .  A
C603        C604   1.392       .  A
C604        H608   1.082       .  S
C609        C614   1.382       .  A
C609        C610   1.401       .  A
C609        O615   1.318       .  A
C610        C611   1.401       .  A
C610        H621   1.083       .  S
C611        C620   1.358       .  A
C611        C612   1.382       .  A
C612        C613   1.402       .  A
C612        O618   1.319       .  A
C613        C614   1.402       .  A
C613        H622   1.082       .  S
C614        C617   1.359       .  A
O615        C616   1.329       .  A
C616        C617   1.389       .  A
C617        H623   1.083       .  S
O618        C619   1.329       .  A
C619        C620   1.389       .  A
C620        H624   1.083       .  S
C625        C630   1.380       .  A
C625        C626   1.406   1_565  A
C625        O631   1.320   1_565  A
C626        C627   1.404   1_545  A
C626        H637   1.082       .  S
C627        C636   1.366       .  A
C627        C628   1.381       .  A
C628        C629   1.402       .  A
C628        O634   1.317       .  A
C629        C630   1.401       .  A
C629        H638   1.082       .  S
C630        C633   1.362       .  A
O631        C632   1.332   1_545  A
C632        C633   1.389       .  A
C633        H639   1.083       .  S
O634        C635   1.330       .  A
C635        C636   1.391       .  A
C636        H640   1.083   1_565  S
C641        C646   1.380       .  A
C641        C642   1.406   1_565  A
C641        O647   1.319   1_565  A
C642        C643   1.404   1_545  A
C642        H653   1.082       .  S
C643        C652   1.367   1_565  A
C643        C644   1.381       .  A
C644        C645   1.403       .  A
C644        O650   1.317       .  A
C645        C646   1.402       .  A
C645        H654   1.082       .  S
C646        C649   1.363       .  A
O647        C648   1.332   1_545  A
C648        C649   1.390       .  A
C649        H655   1.083       .  S
O650        C651   1.330       .  A
C651        C652   1.391   1_565  A
C652        H656   1.083       .  S
C657        C662   1.380       .  A
C657        C658   1.403       .  A
C657        O663   1.320       .  A
C658        C659   1.403       .  A
C658        H669   1.083       .  S
C659        C668   1.359       .  A
C659        C660   1.380       .  A
C660        C661   1.407       .  A
C660        O666   1.324       .  A
C661        C662   1.408       .  A
C661        H670   1.082       .  S
C662        C665   1.366       .  A
O663        C664   1.331       .  A
C664        C665   1.394       .  A
C665        H671   1.082       .  S
O666        C667   1.333       .  A
C667        C668   1.390       .  A
C668        H672   1.083       .  S
C673        C678   1.380       .  A
C673        C674   1.412       .  A
C673        O679   1.328       .  A
C674        C675   1.411       .  A
C674        H685   1.082       .  S
C675        C684   1.372       .  A
C675        C676   1.381       .  A
C676        C677   1.397       .  A
C676        O682   1.314       .  A
C677        C678   1.397       .  A
C677        H686   1.083       .  S
C678        C681   1.353       .  A
O679        C680   1.335       .  A
C680        C681   1.389       .  A
C681        H687   1.083       .  S
O682        C683   1.328       .  A
C683        C684   1.395       .  A
C684        H688   1.082       .  S
C689        C694   1.381       .  A
C689        C690   1.410       .  A
C689        O695   1.325       .  A
C690        C691   1.409       .  A
C690        H701   1.082       .  S
C691        C700   1.371       .  A
C691        C692   1.381       .  A
C692        C693   1.398       .  A
C692        O698   1.313       .  A
C693        C694   1.397       .  A
C693        H702   1.083       .  S
C694        C697   1.355       .  A
O695        C696   1.333       .  A
C696        C697   1.388       .  A
C697        H703   1.083       .  S
O698        C699   1.328       .  A
C699        C700   1.394       .  A
C700        H704   1.082       .  S
C705        C710   1.380       .  A
C705        C706   1.407       .  A
C705        O711   1.321       .  A
C706        C707   1.406       .  A
C706        H717   1.082       .  S
C707        C716   1.368       .  A
C707        C708   1.380       .  A
C708        C709   1.404       .  A
C708        O714   1.319       .  A
C709        C710   1.403       .  A
C709        H718   1.082       .  S
C710        C713   1.365       .  A
O711        C712   1.333       .  A
C712        C713   1.390       .  A
C713        H719   1.083       .  S
O714        C715   1.331   1_554  A
C715        C716   1.392   1_556  A
C716        H720   1.082       .  S
C721        C726   1.380       .  A
C721        C722   1.406       .  A
C721        O727   1.319       .  A
C722        C723   1.404       .  A
C722        H733   1.083       .  S
C723        C732   1.366       .  A
C723        C724   1.380       .  A
C724        C725   1.404       .  A
C724        O730   1.318       .  A
C725        C726   1.402       .  A
C725        H734   1.082       .  S
C726        C729   1.365       .  A
O727        C728   1.331       .  A
C728        C729   1.390       .  A
C729        H735   1.082       .  S
O730        C731   1.331       .  A
C731        C732   1.392       .  A
C732        H736   1.083       .  S
C737        C742   1.380       .  A
C737        C738   1.398       .  A
C737        O743   1.314       .  A
C738        C739   1.397       .  A
C738        H749   1.083       .  S
C739        C748   1.355       .  A
C739        C740   1.380       .  A
C740        C741   1.410       .  A
C740        O746   1.326       .  A
C741        C742   1.410       .  A
C741        H750   1.082       .  S
C742        C745   1.372       .  A
O743        C744   1.329       .  A
C744        C745   1.394       .  A
C745        H751   1.082       .  S
O746        C747   1.333       .  A
C747        C748   1.389       .  A
C748        H752   1.083       .  S
C753        C758   1.380       .  A
C753        C754   1.407       .  A
C753        O759   1.324       .  A
C754        C755   1.407       .  A
C754        H765   1.082       .  S
C755        C764   1.365       .  A
C755        C756   1.380       .  A
C756        C757   1.401       .  A
C756        O762   1.318       .  A
C757        C758   1.401       .  A
C757        H766   1.083       .  S
C758        C761   1.357       .  A
O759        C760   1.333       .  A
C760        C761   1.389       .  A
C761        H767   1.083       .  S
O762        C763   1.330       .  A
C763        C764   1.394       .  A
C764        H768   1.082       .  S
C769        C774   1.381       .  A
C769        C770   1.409       .  A
C769        O775   1.325       .  A
C770        C771   1.408       .  A
C770        H781   1.082       .  S
C771        C780   1.370       .  A
C771        C772   1.381       .  A
C772        C773   1.398       .  A
C772        O778   1.314       .  A
C773        C774   1.398       .  A
C773        H782   1.083       .  S
C774        C777   1.355       .  A
O775        C776   1.333       .  A
C776        C777   1.390       .  A
C777        H783   1.083       .  S
O778        C779   1.329       .  A
C779        C780   1.393       .  A
C780        H784   1.082       .  S
C785        C790   1.380       .  A
C785        C786   1.409       .  A
C785        O791   1.322       .  A
C786        C787   1.407       .  A
C786        H797   1.082       .  S
C787        C796   1.370       .  A
C787        C788   1.380       .  A
C788        C789   1.403       .  A
C788        O794   1.317       .  A
C789        C790   1.402       .  A
C789        H798   1.082       .  S
C790        C793   1.363       .  A
O791        C792   1.333       .  A
C792        C793   1.391       .  A
C793        H799   1.083       .  S
O794        C795   1.331       .  A
C795        C796   1.393       .  A
C796        H800   1.082       .  S
C801        C806   1.382       .  A
C801        C802   1.400       .  A
C801        O807   1.315       .  A
C802        C803   1.399       .  A
C802        H813   1.082       .  S
C803        C812   1.359       .  A
C803        C804   1.382   1_554  A
C804        C805   1.401   1_556  A
C804        O810   1.316       .  A
C805        C806   1.400       .  A
C805        H814   1.083   1_554  S
C806        C809   1.359       .  A
O807        C808   1.327       .  A
C808        C809   1.389       .  A
C809        H815   1.083       .  S
O810        C811   1.328       .  A
C811        C812   1.388   1_556  A
C812        H816   1.083       .  S
C817        C822   1.381   1_565  A
C817        C818   1.406   1_554  A
C817        O823   1.324       .  A
C818        C819   1.407       .  A
C818        H829   1.082       .  S
C819        C828   1.364       .  A
C819        C820   1.381       .  A
C820        C821   1.403   1_565  A
C820        O826   1.321   1_565  A
C821        C822   1.403   1_556  A
C821        H830   1.082       .  S
C822        C825   1.360       .  A
O823        C824   1.333   1_565  A
C824        C825   1.390       .  A
C825        H831   1.083       .  S
O826        C827   1.330   1_545  A
C827        C828   1.393       .  A
C828        H832   1.083       .  S
C833        C838   1.380   1_565  A
C833        C834   1.406       .  A
C833        O839   1.319       .  A
C834        C835   1.404       .  A
C834        H845   1.082       .  S
C835        C844   1.366       .  A
C835        C836   1.380   1_565  A
C836        C837   1.404       .  A
C836        O842   1.319       .  A
C837        C838   1.403       .  A
C837        H846   1.082       .  S
C838        C841   1.364       .  A
O839        C840   1.332       .  A
C840        C841   1.390   1_565  A
C841        H847   1.083       .  S
O842        C843   1.330       .  A
C843        C844   1.391   1_545  A
C844        H848   1.083       .  S
C849        C854   1.380       .  A
C849        C850   1.411       .  A
C849        O855   1.327       .  A
C850        C851   1.411       .  A
C850        H861   1.082       .  S
C851        C860   1.372       .  A
C851        C852   1.381       .  A
C852        C853   1.397       .  A
C852        O858   1.313       .  A
C853        C854   1.397       .  A
C853        H862   1.083       .  S
C854        C857   1.354       .  A
O855        C856   1.335       .  A
C856        C857   1.388       .  A
C857        H863   1.083       .  S
O858        C859   1.328       .  A
C859        C860   1.395       .  A
C860        H864   1.082       .  S
C865        C870   1.380       .  A
C865        C866   1.407       .  A
C865        O871   1.323       .  A
C866        C867   1.407       .  A
C866        H877   1.082       .  S
C867        C876   1.365       .  A
C867        C868   1.381       .  A
C868        C869   1.400       .  A
C868        O874   1.317       .  A
C869        C870   1.400       .  A
C869        H878   1.083       .  S
C870        C873   1.356       .  A
O871        C872   1.333       .  A
C872        C873   1.389       .  A
C873        H879   1.083       .  S
O874        C875   1.329       .  A
C875        C876   1.394       .  A
C876        H880   1.083       .  S
C881        C886   1.380       .  A
C881        C882   1.411       .  A
C881        O887   1.326       .  A
C882        C883   1.411       .  A
C882        H893   1.082       .  S
C883        C892   1.372       .  A
C883        C884   1.380       .  A
C884        C885   1.399       .  A
C884        O890   1.315       .  A
C885        C886   1.398       .  A
C885        H894   1.083       .  S
C886        C889   1.356       .  A
O887        C888   1.334       .  A
C888        C889   1.389       .  A
C889        H895   1.083       .  S
O890        C891   1.329       .  A
C891        C892   1.395       .  A
C892        H896   1.082       .  S
C897        C902   1.380       .  A
C897        C898   1.409       .  A
C897        O903   1.325       .  A
C898        C899   1.409       .  A
C898        H909   1.082       .  S
C899        C908   1.367       .  A
C899        C900   1.381       .  A
C900        C901   1.398       .  A
C900        O906   1.316       .  A
C901        C902   1.398       .  A
C901        H910   1.082       .  S
C902        C905   1.354       .  A
O903        C904   1.334       .  A
C904        C905   1.388       .  A
C905        H911   1.083       .  S
O906        C907   1.328       .  A
C907        C908   1.395       .  A
C908        H912   1.082       .  S
C913        C918   1.381       .  A
C913        C914   1.402       .  A
C913        O919   1.317       .  A
C914        C915   1.401       .  A
C914        H925   1.083       .  S
C915        C924   1.361       .  A
C915        C916   1.382       .  A
C916        C917   1.401       .  A
C916        O922   1.316       .  A
C917        C918   1.400       .  A
C917        H926   1.083       .  S
C918        C921   1.361       .  A
O919        C920   1.329       .  A
C920        C921   1.389       .  A
C921        H927   1.083       .  S
O922        C923   1.329       .  A
C923        C924   1.389       .  A
C924        H928   1.083       .  S
C929        C934   1.380       .  A
C929        C930   1.404   1_655  A
C929        O935   1.319   1_655  A
C930        C931   1.403   1_455  A
C930        H941   1.082       .  S
C931        C940   1.365       .  A
C931        C932   1.380       .  A
C932        C933   1.405       .  A
C932        O938   1.319       .  A
C933        C934   1.404       .  A
C933        H942   1.082       .  S
C934        C937   1.365       .  A
O935        C936   1.331   1_455  A
C936        C937   1.391       .  A
C937        H943   1.083       .  S
O938        C939   1.331   1_554  A
C939        C940   1.390   1_556  A
C940        H944   1.082   1_655  S
C945        C950   1.381       .  A
C945        C946   1.402       .  A
C945        O951   1.320       .  A
C946        C947   1.402       .  A
C946        H957   1.082       .  S
C947        C956   1.358       .  A
C947        C948   1.381       .  A
C948        C949   1.406   1_655  A
C948        O954   1.325       .  A
C949        C950   1.407   1_455  A
C949        H958   1.082       .  S
C950        C953   1.364   1_655  A
O951        C952   1.330       .  A
C952        C953   1.392   1_655  A
C953        H959   1.083       .  S
O954        C955   1.333       .  A
C955        C956   1.390       .  A
C956        H960   1.083       .  S
C961        C966   1.380       .  A
C961        C962   1.397       .  A
C961        O967   1.313       .  A
C962        C963   1.396       .  A
C962        H973   1.083       .  S
C963        C972   1.353       .  A
C963        C964   1.380       .  A
C964        C965   1.413       .  A
C964        O970   1.328       .  A
C965        C966   1.413       .  A
C965        H974   1.082       .  S
C966        C969   1.375       .  A
O967        C968   1.328       .  A
C968        C969   1.397       .  A
C969        H975   1.082       .  S
O970        C971   1.336       .  A
C971        C972   1.388       .  A
C972        H976   1.083       .  S
C977        C982   1.381       .  A
C977        C978   1.406       .  A
C977        O983   1.324       .  A
C978        C979   1.407       .  A
C978        H989   1.082       .  S
C979        C988   1.363       .  A
C979        C980   1.381       .  A
C980        C981   1.401       .  A
C980        O986   1.319       .  A
C981        C982   1.401       .  A
C981        H990   1.083       .  S
C982        C985   1.357       .  A
O983        C984   1.332       .  A
C984        C985   1.390       .  A
C985        H991   1.083       .  S
O986        C987   1.330       .  A
C987        C988   1.393       .  A
C988        H992   1.083       .  S
C993        C998   1.380       .  A
C993        C994   1.401       .  A
C993        O999   1.318       .  A
C994        C995   1.401       .  A
C994       H1005   1.083       .  S
C995       C1004   1.358       .  A
C995        C996   1.381       .  A
C996        C997   1.407       .  A
C996       O1002   1.323       .  A
C997        C998   1.407       .  A
C997       H1006   1.082       .  S
C998       C1001   1.365       .  A
O999       C1000   1.330       .  A
C1000      C1001   1.393       .  A
C1001      H1007   1.082       .  S
O1002      C1003   1.333       .  A
C1003      C1004   1.389       .  A
C1004      H1008   1.083       .  S
C1009      C1014   1.381   1_556  A
C1009      C1010   1.402   1_556  A
C1009      O1015   1.317       .  A
C1010      C1011   1.401       .  A
C1010      H1021   1.083   1_554  S
C1011      C1020   1.362       .  A
C1011      C1012   1.381       .  A
C1012      C1013   1.403       .  A
C1012      O1018   1.318       .  A
C1013      C1014   1.402       .  A
C1013      H1022   1.083       .  S
C1014      C1017   1.363       .  A
O1015      C1016   1.329       .  A
C1016      C1017   1.390   1_556  A
C1017      H1023   1.083       .  S
O1018      C1019   1.330       .  A
C1019      C1020   1.389       .  A
C1020      H1024   1.083       .  S
C1025      C1030   1.380       .  A
C1025      C1026   1.413       .  A
C1025      O1031   1.328       .  A
C1026      C1027   1.413       .  A
C1026      H1037   1.082       .  S
C1027      C1036   1.374       .  A
C1027      C1028   1.380       .  A
C1028      C1029   1.396       .  A
C1028      O1034   1.313       .  A
C1029      C1030   1.396       .  A
C1029      H1038   1.083       .  S
C1030      C1033   1.353       .  A
O1031      C1032   1.336       .  A
C1032      C1033   1.387       .  A
C1033      H1039   1.083       .  S
O1034      C1035   1.327       .  A
C1035      C1036   1.397       .  A
C1036      H1040   1.082       .  S
C1041      C1046   1.380       .  A
C1041      C1042   1.400       .  A
C1041      O1047   1.315       .  A
C1042      C1043   1.399       .  A
C1042      H1053   1.083       .  S
C1043      C1052   1.359       .  A
C1043      C1044   1.380       .  A
C1044      C1045   1.408       .  A
C1044      O1050   1.321       .  A
C1045      C1046   1.407       .  A
C1045      H1054   1.082       .  S
C1046      C1049   1.368       .  A
O1047      C1048   1.329       .  A
C1048      C1049   1.393       .  A
C1049      H1055   1.082       .  S
O1050      C1051   1.333       .  A
C1051      C1052   1.389       .  A
C1052      H1056   1.083       .  S
C1057      C1062   1.381       .  A
C1057      C1058   1.404       .  A
C1057      O1063   1.321       .  A
C1058      C1059   1.403       .  A
C1058      H1069   1.082       .  S
C1059      C1068   1.362       .  A
C1059      C1060   1.381       .  A
C1060      C1061   1.402       .  A
C1060      O1066   1.319       .  A
C1061      C1062   1.402       .  A
C1061      H1070   1.082       .  S
C1062      C1065   1.361       .  A
O1063      C1064   1.331       .  A
C1064      C1065   1.390       .  A
C1065      H1071   1.083       .  S
O1066      C1067   1.330       .  A
C1067      C1068   1.391       .  A
C1068      H1072   1.083       .  S
C1073      C1078   1.381       .  A
C1073      C1074   1.405       .  A
C1073      O1079   1.322       .  A
C1074      C1075   1.405       .  A
C1074      H1085   1.082       .  S
C1075      C1084   1.363       .  A
C1075      C1076   1.380       .  A
C1076      C1077   1.402       .  A
C1076      O1082   1.319       .  A
C1077      C1078   1.402       .  A
C1077      H1086   1.082       .  S
C1078      C1081   1.358       .  A
O1079      C1080   1.331       .  A
C1080      C1081   1.391       .  A
C1081      H1087   1.083       .  S
O1082      C1083   1.331       .  A
C1083      C1084   1.392       .  A
C1084      H1088   1.082       .  S
C1089      C1094   1.381       .  A
C1089      C1090   1.405       .  A
C1089      O1095   1.319       .  A
C1090      C1091   1.404   1_556  A
C1090      H1101   1.082       .  S
C1091      C1100   1.365       .  A
C1091      C1092   1.381       .  A
C1092      C1093   1.402   1_554  A
C1092      O1098   1.316       .  A
C1093      C1094   1.400       .  A
C1093      H1102   1.082   1_556  S
C1094      C1097   1.361       .  A
O1095      C1096   1.332       .  A
C1096      C1097   1.388       .  A
C1097      H1103   1.083       .  S
O1098      C1099   1.330       .  A
C1099      C1100   1.391       .  A
C1100      H1104   1.082       .  S
C1105      C1110   1.381       .  A
C1105      C1106   1.406       .  A
C1105      O1111   1.323       .  A
C1106      C1107   1.406       .  A
C1106      H1117   1.082       .  S
C1107      C1116   1.363       .  A
C1107      C1108   1.381       .  A
C1108      C1109   1.402       .  A
C1108      O1114   1.320       .  A
C1109      C1110   1.402       .  A
C1109      H1118   1.082       .  S
C1110      C1113   1.360       .  A
O1111      C1112   1.332       .  A
C1112      C1113   1.390       .  A
C1113      H1119   1.083       .  S
O1114      C1115   1.329       .  A
C1115      C1116   1.393       .  A
C1116      H1120   1.083       .  S
