geometry optimzed in LAMMPS
_audit_creation_date              2020-11-30 
_audit_creation_method            'lammps2cif' 
_symmetry_space_group_name_H-M    'P1' 
_symmetry_Int_Tables_number       1 
_symmetry_cell_setting            triclinic 
loop_ 
_symmetry_equiv_pos_as_xyz 
  x,y,z 
_cell_length_a                    38.4749383 
_cell_length_b                    38.46636671095706 
_cell_length_c                    74.00020616228556 
_cell_angle_alpha                 90.28459827313524 
_cell_angle_beta                  89.8068961060594 
_cell_angle_gamma                 120.01092868518155 
loop_ 
_atom_site_label 
_atom_site_type_symbol 
_atom_site_fract_x 
_atom_site_fract_y 
_atom_site_fract_z 
_atom_site_charge 
O1          O  0.65067164  0.76268650  0.57512302    -0.81300
O2          O  0.62306262  0.78030101  0.65681637    -0.66000
O3          O  0.65650180  0.80495962  0.60758705    -1.12600
C4          C  0.76426194  0.78725100  0.62516481     1.05600
O5          O  0.68466766  0.81809734  0.66738054    -0.79200
O6          O  0.74238694  0.86010252  0.64301504    -0.66800
Ni7        Ni  0.61907721  0.78071831  0.58827374     1.34900
C8          C  0.74977391  0.87264152  0.62684600     0.84300
O9          O  0.59635014  0.80500156  0.62908676    -0.79800
O10         O  0.58398564  0.79685128  0.59923053    -0.90000
C11         C  0.64696203  0.79746193  0.66987962     0.83900
O12         O  0.58849069  0.72825002  0.59812486    -0.68200
O13         O  0.75933095  0.79871434  0.64068172    -0.87500
C14         C  0.58253264  0.71467580  0.61410497     0.84700
C15         C  0.57708385  0.80517189  0.61509879     1.06300
H16         H  0.66995743  0.75209054  0.63577182     0.38100
O17         O  0.68105692  0.78058112  0.63404374    -1.10200
O18         O  0.73648874  0.84918452  0.61323908    -0.66800
Ni19       Ni  0.69862849  0.79278273  0.60949598     1.26300
O20         O  0.60054705  0.73630413  0.62778438    -0.67100
O21         O  0.74047483  0.78030219  0.61201572    -0.79400
C22         C  0.68839974  0.77999271  0.57259545     0.84100
O23         O  0.71265027  0.80264942  0.58458844    -0.66500
Ni24       Ni  0.71982038  0.80739446  0.65273853     1.27400
Ni25       Ni  0.63832208  0.79227024  0.63199661     1.26100
H26         H  0.66802119  0.83361435  0.60619457     0.38600
O27         O  0.77020927  0.63428603  0.42604008    -0.81300
O28         O  0.79141992  0.60592715  0.34559059    -0.66000
O29         O  0.81495345  0.64206175  0.39440608    -1.12600
C30         C  0.79802918  0.74892731  0.37547298     1.05600
O31         O  0.82950589  0.66722334  0.33454645    -0.79200
O32         O  0.87162540  0.72314013  0.35985751    -0.66800
Ni33       Ni  0.79328523  0.60557326  0.41409997     1.34900
C34         C  0.88212039  0.73324375  0.37615652     0.84300
O35         O  0.81604821  0.58078835  0.37399202    -0.79800
O36         O  0.81525632  0.57420065  0.40420142    -0.90000
C37         C  0.80960293  0.62926899  0.33250320     0.83900
O38         O  0.74193078  0.56925923  0.40403338    -0.68200
O39         O  0.81329273  0.74480730  0.36083825    -0.87500
C40         C  0.72700554  0.56383075  0.38828540     0.84700
C41         C  0.82112562  0.56520949  0.38825704     1.06300
H42         H  0.76246585  0.65359531  0.36477411     0.38100
O43         O  0.79074586  0.66478962  0.36724882    -1.10200
O44         O  0.85687589  0.72237170  0.38904485    -0.66800
Ni45       Ni  0.80069231  0.68271514  0.39178258     1.26300
O46         O  0.74679065  0.58450546  0.37468621    -0.67100
O47         O  0.78667620  0.72348778  0.38826310    -0.79400
C48         C  0.78648677  0.67199189  0.42868017     0.84100
O49         O  0.80834898  0.69674116  0.41669082    -0.66500
Ni50       Ni  0.82026338  0.70371595  0.34903276     1.27400
Ni51       Ni  0.80272629  0.62237000  0.37027099     1.26100
H52         H  0.84374058  0.65480665  0.39567676     0.38600
O53         O  0.34664793  0.10845780  0.42794359    -0.81300
O54         O  0.37347485  0.15233058  0.34655452    -0.66000
O55         O  0.33880382  0.14312492  0.39551028    -1.12600
C56         C  0.23370606  0.01588895  0.37795421     1.05600
O57         O  0.31169366  0.12622282  0.33565659    -0.79200
O58         O  0.25445164  0.11054243  0.36017033    -0.66800
Ni59       Ni  0.37555199  0.15929845  0.41517821     1.34900
C60         C  0.24630360  0.11515931  0.37632046     0.84300
O61         O  0.39829466  0.20418511  0.37435267    -0.79800
O62         O  0.40725280  0.21173170  0.40448317    -0.90000
C63         C  0.34956361  0.14554093  0.33350715     0.83900
O64         O  0.41134985  0.14316144  0.40548792    -0.68200
O65         O  0.23804792  0.03233618  0.36255504    -0.87500
C66         C  0.41769605  0.13425899  0.38973404     0.84700
C67         C  0.41510619  0.22555760  0.38836949     1.06300
H68         H  0.32831037  0.07707989  0.36728672     0.38100
O69         O  0.31632211  0.09370338  0.36906453    -1.10200
O70         O  0.25896563  0.10454891  0.38990252    -0.66800
Ni71       Ni  0.29840301  0.08808342  0.39355669     1.26300
O72         O  0.39713718  0.13289511  0.37601201    -0.67100
O73         O  0.25794944  0.03296395  0.39097677    -0.79400
C74         C  0.30888768  0.08622262  0.43027299     0.84100
O75         O  0.28436117  0.08401027  0.41836008    -0.66500
Ni76       Ni  0.27722111  0.08053213  0.35042413     1.27400
Ni77       Ni  0.35773887  0.14879717  0.37130706     1.26100
H78         H  0.32600162  0.15917603  0.39657502     0.38600
O79         O  0.21893697  0.85295343  0.57439923    -0.81300
O80         O  0.20316142  0.81152195  0.65617147    -0.66000
O81         O  0.17757553  0.82040638  0.60730272    -1.12600
C82         C  0.19869559  0.94704695  0.62461160     1.05600
O83         O  0.16800676  0.83798514  0.66744849    -0.79200
O84         O  0.12490225  0.84998668  0.64224126    -0.66800
Ni85       Ni  0.19830945  0.80343765  0.58778297     1.34900
C86         C  0.11332055  0.84821672  0.62605958     0.84300
O87         O  0.17563704  0.75941055  0.62880525    -0.79800
O88         O  0.17885097  0.75176125  0.59885718    -0.90000
C89         C  0.18634509  0.81839812  0.66935563     0.83900
O90         O  0.25079890  0.82178589  0.59719319    -0.68200
O91         O  0.18435903  0.92943100  0.63963061    -0.87500
C92         C  0.26579133  0.83111607  0.61293748     0.84700
C93         C  0.17197414  0.73799088  0.61493977     1.06300
H94         H  0.23305116  0.88667500  0.63576014     0.38100
O95         O  0.20452020  0.86999378  0.63375387    -1.10200
O96         O  0.13755002  0.86076354  0.61276045    -0.66800
Ni97       Ni  0.19310414  0.87586207  0.60919063     1.26300
O98         O  0.24590218  0.83105923  0.62671743    -0.67100
O99         O  0.20844248  0.93119955  0.61188239    -0.79400
C100        C  0.20338203  0.87499900  0.57193859     0.84100
O101        O  0.18357060  0.88013188  0.58431801    -0.66500
Ni102      Ni  0.17718872  0.88230039  0.65214838     1.27400
Ni103      Ni  0.19067713  0.81488918  0.63155359     1.26100
H104        H  0.14871610  0.80467761  0.60626110     0.38600
O105        O  0.12854176  0.33570248  0.57474757    -0.81300
O106        O  0.17640226  0.36248424  0.65640465    -0.66000
O107        O  0.16378840  0.32759715  0.60708748    -1.12600
C108        C  0.03813405  0.22227787  0.62516527     1.05600
O109        O  0.14796435  0.30087195  0.66768341    -0.79200
O110        O  0.13637144  0.24637456  0.64203267    -0.66800
Ni111      Ni  0.17903264  0.36498174  0.58764399     1.34900
C112        C  0.13793486  0.23632059  0.62582066     0.84300
O113        O  0.22628003  0.38657265  0.62812150    -0.79800
O114        O  0.23136541  0.39757267  0.59817220    -0.90000
C115        C  0.16893604  0.33874923  0.66959096     0.83900
O116        O  0.16105724  0.39890862  0.59782120    -0.68200
O117        O  0.05675696  0.22558401  0.63984983    -0.87500
C118        C  0.15335612  0.40521340  0.61381074     0.84700
C119        C  0.24642863  0.40447299  0.61403601     1.06300
H120        H  0.09944138  0.31747707  0.63634750     0.38100
O121        O  0.11583635  0.30539638  0.63408710    -1.10200
O122        O  0.12441222  0.24723417  0.61261671    -0.66800
Ni123      Ni  0.10861384  0.28755506  0.60943531     1.26300
O124        O  0.15499932  0.38598715  0.62743538    -0.67100
O125        O  0.05331321  0.24778040  0.61248437    -0.79400
C126        C  0.10614966  0.29802347  0.57236080     0.84100
O127        O  0.10286360  0.27335969  0.58446159    -0.66500
Ni128      Ni  0.10384512  0.26577603  0.65228993     1.27400
Ni129      Ni  0.17100184  0.34645017  0.63149866     1.26100
H130        H  0.17952579  0.31455421  0.60558012     0.38600
O131        O  0.87301525  0.20777096  0.42726671    -0.81300
O132        O  0.82695875  0.19107701  0.34598397    -0.66000
O133        O  0.83794288  0.16563902  0.39468961    -1.12600
C134        C  0.96139655  0.18196944  0.37629651     1.05600
O135        O  0.85311335  0.15633018  0.33380837    -0.79200
O136        O  0.86097005  0.11091196  0.35941246    -0.66800
Ni137      Ni  0.82261098  0.18706161  0.41449585     1.34900
C138        C  0.86043807  0.09925069  0.37548309     0.84300
O139        O  0.77636526  0.16434461  0.37392920    -0.79800
O140        O  0.77034376  0.16758614  0.40401592    -0.90000
C141        C  0.83358380  0.17485479  0.33245827     0.83900
O142        O  0.84046181  0.23939898  0.40501776    -0.68200
O143        O  0.94195267  0.16618148  0.36178078    -0.87500
C144        C  0.84923136  0.25437457  0.38926917     0.84700
C145        C  0.75576372  0.16079494  0.38806086     1.06300
H146        H  0.90314029  0.21976804  0.36555538     0.38100
O147        O  0.88607449  0.19138465  0.36774279    -1.10200
O148        O  0.87619471  0.12377601  0.38862653    -0.66800
Ni149      Ni  0.89291173  0.18003805  0.39224271     1.26300
O150        O  0.84861053  0.23433152  0.37540009    -0.67100
O151        O  0.94771488  0.19445017  0.38886073    -0.79400
C152        C  0.89467813  0.19172585  0.42960187     0.84100
O153        O  0.89855805  0.17106368  0.41718005    -0.66500
Ni154      Ni  0.89608819  0.16232823  0.34930865     1.27400
Ni155      Ni  0.83142935  0.17866589  0.37054298     1.26100
H156        H  0.82180533  0.13682496  0.39579326     0.38600
O157        O  0.68059856  0.81256430  0.83581078    -0.81300
O158        O  0.70848148  0.79700072  0.91813804    -0.66000
O159        O  0.67553035  0.77421251  0.86893027    -1.12600
C160        C  0.57589166  0.80576173  0.88821305     1.05600
O161        O  0.64629976  0.76003299  0.92815892    -0.79200
O162        O  0.58282018  0.72725828  0.90549586    -0.66800
Ni163      Ni  0.71392307  0.79848507  0.84987988     1.34900
C164        C  0.57626669  0.71225633  0.88970121     0.84300
O165        O  0.73442920  0.77216866  0.89060873    -0.79800
O166        O  0.75149998  0.78648055  0.86150122    -0.90000
C167        C  0.68404167  0.77550345  0.93031810     0.83900
O168        O  0.74073453  0.85163610  0.85940434    -0.68200
O169        O  0.58286320  0.79831918  0.90419050    -0.87500
C170        C  0.74823652  0.86510812  0.87545857     0.84700
C171        C  0.75691211  0.77630952  0.87717518     1.06300
H172        H  0.66601561  0.83010704  0.89657544     0.38100
O173        O  0.65330346  0.80127171  0.89542196    -1.10200
O174        O  0.59493190  0.73249925  0.87579470    -0.66800
Ni175      Ni  0.63429791  0.78807472  0.87117169     1.26300
O176        O  0.73336292  0.84269283  0.88925537    -0.67100
O177        O  0.59392756  0.80308338  0.87421389    -0.79400
C178        C  0.64278922  0.79387858  0.83342687     0.84100
O179        O  0.61868331  0.77624055  0.84638090    -0.66500
Ni180      Ni  0.61621529  0.77986188  0.91503456     1.27400
Ni181      Ni  0.69393484  0.78682613  0.89332403     1.26100
H182        H  0.66326338  0.74551028  0.86738703     0.38600
O183        O  0.82443133  0.66738331  0.16837851    -0.81300
O184        O  0.80974946  0.69431645  0.08489943    -0.66000
O185        O  0.78976956  0.66255534  0.13437414    -1.12600
C186        C  0.82400058  0.56484438  0.11444460     1.05600
O187        O  0.77318076  0.63178264  0.07521622    -0.79200
O188        O  0.74310064  0.56822996  0.09792662    -0.66800
Ni189      Ni  0.81713990  0.70269231  0.15255120     1.34900
C190        C  0.72873449  0.56203572  0.11382826     0.84300
O191        O  0.78480546  0.71971914  0.11266922    -0.79800
O192        O  0.81192249  0.74332442  0.13970522    -0.90000
C193        C  0.78855350  0.66941946  0.07276202     0.83900
O194        O  0.86922140  0.72085596  0.14274402    -0.68200
O195        O  0.81580620  0.57153592  0.09856445    -0.87500
C196        C  0.88109646  0.73150351  0.12663227     0.84700
C197        C  0.79640335  0.74624044  0.12502571     1.06300
H198        H  0.84532758  0.65388197  0.10623888     0.38100
O199        O  0.81647465  0.64059260  0.10758194    -1.10200
O200        O  0.74918304  0.58180595  0.12751559    -0.66800
Ni201      Ni  0.80454028  0.62180652  0.13188352     1.26300
O202        O  0.85679409  0.72101063  0.11334280    -0.67100
O203        O  0.82056656  0.58209913  0.12858737    -0.79400
C204        C  0.80834213  0.62955356  0.17006599     0.84100
O205        O  0.79354038  0.60582148  0.15668719    -0.66500
Ni206      Ni  0.79504410  0.60315042  0.08803542     1.27400
Ni207      Ni  0.80082757  0.68026881  0.10979762     1.26100
H208        H  0.76127379  0.65031159  0.13649851     0.38600
O209        O  0.31439909  0.12856138  0.16799405    -0.81300
O210        O  0.28435201  0.08452252  0.08507864    -0.66000
O211        O  0.31661257  0.09467138  0.13441514    -1.12600
C212        C  0.41760762  0.22541765  0.11524559     1.05600
O213        O  0.34670779  0.10934880  0.07532493    -0.79200
O214        O  0.41106151  0.14225195  0.09745348    -0.66800
Ni215      Ni  0.27840929  0.08319339  0.15326846     1.34900
C216        C  0.41618649  0.13128848  0.11289681     0.84300
O217        O  0.25738175  0.03399199  0.11275534    -0.79800
O218        O  0.23797446  0.03553522  0.14115177    -0.90000
C219        C  0.30901035  0.08723506  0.07298293     0.83900
O220        O  0.25710283  0.11447943  0.14378324    -0.68200
O221        O  0.40869233  0.21189611  0.09910049    -0.87500
C222        C  0.24729045  0.11736699  0.12775352     0.84700
C223        C  0.23312883  0.01802263  0.12591020     1.06300
H224        H  0.32711834  0.16031867  0.10734406     0.38100
O225        O  0.33954865  0.14389063  0.10809333    -1.10200
O226        O  0.39637223  0.13063946  0.12682211    -0.66800
Ni227      Ni  0.35920503  0.14909357  0.13216175     1.26300
O228        O  0.25911293  0.10584537  0.11403630    -0.67100
O229        O  0.40117031  0.20394165  0.12920957    -0.79400
C230        C  0.35232303  0.14681303  0.16992789     0.84100
O231        O  0.37564814  0.15216691  0.15675862    -0.66500
Ni232      Ni  0.37614436  0.15978558  0.08827498     1.27400
Ni233      Ni  0.29840196  0.08896438  0.11000007     1.26100
H234        H  0.32774414  0.07730821  0.13611189     0.38600
O235        O  0.16298739  0.83262918  0.83513394    -0.81300
O236        O  0.18032242  0.87830506  0.91813819    -0.66000
O237        O  0.20028033  0.86764170  0.86838606    -1.12600
C238        C  0.17455017  0.73861800  0.88784464     1.05600
O239        O  0.22040753  0.85589738  0.92693143    -0.79200
O240        O  0.25193746  0.82357606  0.90429174    -0.66800
Ni241      Ni  0.17139434  0.87751290  0.85004767     1.34900
C242        C  0.26648813  0.83325002  0.88848522     0.84300
O243        O  0.20096345  0.92782950  0.89021095    -0.79800
O244        O  0.17755532  0.92471619  0.86225659    -0.90000
C245        C  0.20281508  0.87591986  0.92997116     0.83900
O246        O  0.11957819  0.84480678  0.86031407    -0.68200
O247        O  0.18092783  0.75297711  0.90387515    -0.87500
C248        C  0.10770367  0.84180257  0.87655222     0.84700
C249        C  0.19104451  0.94281207  0.87729852     1.06300
H250        H  0.14810736  0.80213833  0.89632165     0.38100
O251        O  0.17678885  0.81922482  0.89503131    -1.10200
O252        O  0.24594276  0.83281356  0.87495093    -0.66800
Ni253      Ni  0.18974876  0.81365883  0.87070334     1.26300
O254        O  0.13194142  0.85466991  0.88989062    -0.67100
O255        O  0.17772710  0.75918365  0.87379606    -0.79400
C256        C  0.18384115  0.81568045  0.83287025     0.84100
O257        O  0.20186778  0.81024740  0.84591353    -0.66500
Ni258      Ni  0.19994904  0.80519674  0.91438592     1.27400
Ni259      Ni  0.18880800  0.87352997  0.89303694     1.26100
H260        H  0.22859394  0.88546491  0.86625445     0.38600
O261        O  0.14391249  0.29844973  0.83419114    -0.81300
O262        O  0.09489026  0.26883078  0.91654785    -0.66000
O263        O  0.10928099  0.30249470  0.86740138    -1.12600
C264        C  0.23923847  0.40123373  0.88833052     1.05600
O265        O  0.12055297  0.33063162  0.92719735    -0.79200
O266        O  0.15247389  0.39446418  0.90456657    -0.66800
Ni267      Ni  0.09770930  0.26351930  0.84872488     1.34900
C268        C  0.14565396  0.40132961  0.88857128     0.84300
O269        O  0.04615214  0.24449508  0.88842647    -0.79800
O270        O  0.04906862  0.22380723  0.86046773    -0.90000
C271        C  0.09872164  0.29279182  0.92916654     0.83900
O272        O  0.12765962  0.24133836  0.85897518    -0.68200
O273        O  0.22362191  0.39429717  0.90410390    -0.87500
C274        C  0.12880541  0.23138711  0.87518901     0.84700
C275        C  0.03080567  0.21970635  0.87541644     1.06300
H276        H  0.17200494  0.31073113  0.89607730     0.38100
O277        O  0.15640637  0.32389853  0.89465594    -1.10200
O278        O  0.14826316  0.38277465  0.87480638    -0.66800
Ni279      Ni  0.16430792  0.34334347  0.87043775     1.26300
O280        O  0.11651092  0.24363572  0.88842051    -0.67100
O281        O  0.21950720  0.38336686  0.87413689    -0.79400
C282        C  0.16458505  0.33641962  0.83255365     0.84100
O283        O  0.17031709  0.35984513  0.84575422    -0.66500
Ni284      Ni  0.17107300  0.36088907  0.91440176     1.27400
Ni285      Ni  0.10124705  0.28408133  0.89185494     1.26100
H286        H  0.09302969  0.31472300  0.86524181     0.38600
O287        O  0.84678488  0.15136163  0.16684022    -0.81300
O288        O  0.89455776  0.16687178  0.08471114    -0.66000
O289        O  0.88200585  0.18890732  0.13381453    -1.12600
C290        C  0.75208583  0.15810259  0.11301448     1.05600
O291        O  0.87088981  0.20489621  0.07455467    -0.79200
O292        O  0.83733876  0.23676983  0.09657286    -0.66800
Ni293      Ni  0.89330411  0.16218092  0.15270330     1.34900
C294        C  0.84548343  0.25165365  0.11240122     0.84300
O295        O  0.94391517  0.19089310  0.11267841    -0.79800
O296        O  0.94208881  0.17098791  0.14120634    -0.90000
C297        C  0.89206325  0.18818300  0.07237542     0.83900
O298        O  0.86382656  0.10936554  0.14277875    -0.68200
O299        O  0.76723703  0.16493005  0.09713969    -0.87500
C300        C  0.86092324  0.09721372  0.12657719     0.84700
C301        C  0.95978890  0.18331970  0.12603370     1.06300
H302        H  0.81800425  0.13399003  0.10570116     0.38100
O303        O  0.83425676  0.16282040  0.10687818    -1.10200
O304        O  0.84439270  0.23157879  0.12623967    -0.66800
Ni305      Ni  0.82728773  0.17601865  0.13099531     1.26300
O306        O  0.87215675  0.12094493  0.11314806    -0.67100
O307        O  0.77223530  0.16177824  0.12731351    -0.79400
C308        C  0.82892069  0.17138440  0.16895601     0.84100
O309        O  0.82263421  0.18840066  0.15571672    -0.66500
Ni310      Ni  0.81987999  0.18438886  0.08697048     1.27400
Ni311      Ni  0.88908177  0.17686670  0.10943646     1.26100
H312        H  0.89884904  0.21745919  0.13572434     0.38600
C313        C  0.07591253  0.27645027  0.94620065    -0.03800
C314        C  0.08051524  0.30219171  0.96070539    -0.09600
C315        C  0.05826842  0.28693843  0.97658429    -0.17200
C316        C  0.03110193  0.24578868  0.97823857     0.24900
C317        C  0.02656736  0.21981288  0.96396991    -0.18900
C318        C  0.04884844  0.23499135  0.94806372    -0.07800
C319        C  0.00704695  0.23075003  0.99436368    -0.14200
C320        C  0.98671357  0.22049718  0.00787667    -0.14000
C321        C  0.96220345  0.21108558  0.02388601     0.24800
C322        C  0.96567262  0.18857043  0.03784800    -0.19400
C323        C  0.94258089  0.18071105  0.05356972    -0.07800
C324        C  0.91576585  0.19540414  0.05554200    -0.03900
C325        C  0.91236873  0.21775880  0.04136752    -0.09200
C326        C  0.93540147  0.22549574  0.02567971    -0.16900
H327        H  0.10110914  0.33418627  0.95975321     0.11300
H328        H  0.06196724  0.30734403  0.98752032     0.10600
H329        H  0.00554377  0.18791697  0.96506006     0.10500
H330        H  0.04453734  0.21431840  0.93716387     0.11000
H331        H  0.98641614  0.17736508  0.03664934     0.11100
H332        H  0.94603312  0.16349994  0.06423743     0.11100
H333        H  0.89205577  0.22948808  0.04242310     0.11200
H334        H  0.93252514  0.24303290  0.01498643     0.10000
C335        C  0.16332322  0.69589909  0.88558079    -0.03800
C336        C  0.15178410  0.67671797  0.86861533    -0.09600
C337        C  0.14209550  0.63661137  0.86661401    -0.17200
C338        C  0.14388887  0.61525627  0.88151479     0.24900
C339        C  0.15520353  0.63405930  0.89840820    -0.18900
C340        C  0.16476902  0.67397219  0.90045662    -0.07800
C341        C  0.13548631  0.57447643  0.87962565    -0.14200
C342        C  0.13101589  0.54111047  0.87962402    -0.14000
C343        C  0.12942064  0.50304335  0.88136641     0.24800
C344        C  0.12475379  0.48596215  0.89848930    -0.19400
C345        C  0.12814704  0.45171386  0.90072412    -0.07800
C346        C  0.13623116  0.43394863  0.88582220    -0.03900
C347        C  0.13911591  0.45032422  0.86852297    -0.09200
C348        C  0.13590555  0.48475571  0.86633951    -0.16900
H349        H  0.15036463  0.69269613  0.85689117     0.11300
H350        H  0.13353120  0.62240020  0.85344676     0.10600
H351        H  0.15694309  0.61791852  0.91001140     0.10500
H352        H  0.17372822  0.68774232  0.91368820     0.11000
H353        H  0.11985312  0.49992161  0.91023083     0.11100
H354        H  0.12567803  0.43990185  0.91421417     0.11100
H355        H  0.14559268  0.43760033  0.85678243     0.11200
H356        H  0.13980250  0.49784007  0.85303311     0.10000
C357        C  0.14402267  0.20343831  0.87872869    -0.03800
C358        C  0.13856741  0.18502235  0.89572157    -0.09600
C359        C  0.15050823  0.15653385  0.89856885    -0.17200
C360        C  0.16827994  0.14631796  0.88453013     0.24900
C361        C  0.17448696  0.16504406  0.86772363    -0.18900
C362        C  0.16245478  0.19333334  0.86482096    -0.07800
C363        C  0.17822928  0.11511925  0.88683493    -0.14200
C364        C  0.18491271  0.08762223  0.88690466    -0.14000
C365        C  0.19014236  0.05326902  0.88465938     0.24800
C366        C  0.18701751  0.03721021  0.86735356    -0.19400
C367        C  0.18873590  0.00209170  0.86494453    -0.07800
C368        C  0.19368223  0.98236215  0.87984148    -0.03900
C369        C  0.19821323  0.99944995  0.89716808    -0.09200
C370        C  0.19629362  0.03464729  0.89955727    -0.16900
H371        H  0.12422931  0.19190169  0.90668075     0.11300
H372        H  0.14526838  0.14201931  0.91160008     0.10600
H373        H  0.18801436  0.15723644  0.85672825     0.10500
H374        H  0.16713406  0.20689682  0.85159353     0.11000
H375        H  0.18229507  0.05135448  0.85572149     0.11100
H376        H  0.18533698  0.98994402  0.85141659     0.11100
H377        H  0.20189422  0.98494021  0.90892266     0.11200
H378        H  0.19869944  0.04678219  0.91303213     0.10000
C379        C  0.21066970  0.89837862  0.94725546    -0.03800
C380        C  0.19866005  0.92714418  0.94977342    -0.09600
C381        C  0.20801251  0.94955715  0.96581229    -0.17200
C382        C  0.22926677  0.94339903  0.97957301     0.24900
C383        C  0.24059079  0.91427836  0.97732001    -0.18900
C384        C  0.23143818  0.89198144  0.96129758    -0.07800
C385        C  0.24068454  0.96777650  0.99574373    -0.14200
C386        C  0.25161464  0.98863946  0.00913689    -0.14000
C387        C  0.26584328  0.01389705  0.02501494     0.24800
C388        C  0.30699152  0.04025918  0.02740236    -0.19400
C389        C  0.32097748  0.06444431  0.04287707    -0.07800
C390        C  0.29396799  0.06262020  0.05625034    -0.03900
C391        C  0.25262233  0.03618480  0.05367174    -0.09200
C392        C  0.23871205  0.01203086  0.03816800    -0.16900
H393        H  0.18272669  0.93286725  0.93923096     0.11300
H394        H  0.19912244  0.97204750  0.96738022     0.10600
H395        H  0.25699656  0.90916626  0.98785714     0.10500
H396        H  0.24094455  0.86994333  0.95985490     0.11000
H397        H  0.32831834  0.04199352  0.01733670     0.11100
H398        H  0.35298551  0.08434913  0.04441656     0.11100
H399        H  0.23101976  0.03389406  0.06370128     0.11200
H400        H  0.20679775  0.99174186  0.03649177     0.10000
C401        C  0.21974293  0.13354830  0.12518988    -0.03800
C402        C  0.20365109  0.13318162  0.10808319    -0.09600
C403        C  0.17513165  0.14542325  0.10613009    -0.17200
C404        C  0.16244672  0.15834307  0.12120250     0.24900
C405        C  0.17886138  0.15954121  0.13819010    -0.18900
C406        C  0.20727856  0.14732987  0.14018312    -0.07800
C407        C  0.13151995  0.16892349  0.11950980    -0.14200
C408        C  0.10446584  0.17629453  0.11925675    -0.14000
C409        C  0.07062827  0.18266906  0.12057503     0.24800
C410        C  0.05684171  0.18604134  0.13764126    -0.19400
C411        C  0.02178512  0.18816765  0.13931183    -0.07800
C412        C  0.99988474  0.18705610  0.12390925    -0.03900
C413        C  0.01487376  0.18547716  0.10671987    -0.09200
C414        C  0.04996240  0.18308708  0.10508385    -0.16900
H415        H  0.21239893  0.12260653  0.09628506     0.11300
H416        H  0.16252440  0.14421256  0.09291838     0.10600
H417        H  0.16923062  0.16934477  0.14997531     0.10500
H418        H  0.21892664  0.14802514  0.15356401     0.11000
H419        H  0.07255188  0.18581328  0.14972676     0.11100
H420        H  0.01120971  0.18956777  0.15272855     0.11100
H421        H  0.99857602  0.18428929  0.09460905     0.11200
H422        H  0.06029574  0.18040876  0.09179085     0.10000
C423        C  0.44801012  0.12046119  0.11476701    -0.03800
C424        C  0.46749353  0.11692593  0.09931378    -0.09600
C425        C  0.50091959  0.11198611  0.10098276    -0.17200
C426        C  0.51548263  0.11050334  0.11808457     0.24900
C427        C  0.49536097  0.11226984  0.13356567    -0.18900
C428        C  0.46172492  0.11707190  0.13193425    -0.07800
C429        C  0.55311185  0.11105605  0.11953661    -0.14200
C430        C  0.58642205  0.11536285  0.11945701    -0.14000
C431        C  0.62742060  0.12418413  0.11793282     0.24800
C432        C  0.64923492  0.12555978  0.13329529    -0.19400
C433        C  0.68968607  0.13622186  0.13174605    -0.07800
C434        C  0.70888573  0.14568070  0.11477489    -0.03900
C435        C  0.68648884  0.14391051  0.09941519    -0.09200
C436        C  0.64616553  0.13330833  0.10100853    -0.16900
H437        H  0.45771125  0.11924817  0.08589477     0.11300
H438        H  0.51628745  0.11077240  0.08890420     0.10600
H439        H  0.50647021  0.11134897  0.14688442     0.10500
H440        H  0.44754523  0.11981671  0.14410165     0.11000
H441        H  0.63512450  0.11882663  0.14649058     0.11100
H442        H  0.70596076  0.13733450  0.14384686     0.11100
H443        H  0.70018742  0.15113287  0.08614192     0.11200
H444        H  0.62970758  0.13266499  0.08903501     0.10000
C445        C  0.92481997  0.75823238  0.12340799    -0.03800
C446        C  0.95221738  0.76875020  0.13778887    -0.09600
C447        C  0.99301233  0.79609399  0.13523095    -0.17200
C448        C  0.00729489  0.81345902  0.11828275     0.24900
C449        C  0.98050548  0.80263773  0.10375965    -0.18900
C450        C  0.93955401  0.77513696  0.10627732    -0.07800
C451        C  0.04893066  0.84411443  0.11630992    -0.14200
C452        C  0.08326655  0.87147888  0.11643522    -0.14000
C453        C  0.12275930  0.90611553  0.11875520     0.24800
C454        C  0.14871119  0.92370969  0.10403004    -0.19400
C455        C  0.18547721  0.95939220  0.10636828    -0.07800
C456        C  0.19661485  0.97797208  0.12348067    -0.03900
C457        C  0.17082093  0.95918451  0.13824738    -0.09200
C458        C  0.13430818  0.92367244  0.13588383    -0.16900
H459        H  0.94206896  0.75639757  0.15115168     0.11300
H460        H  0.01333259  0.80432213  0.14660627     0.10600
H461        H  0.99110790  0.81602324  0.09058955     0.10500
H462        H  0.91934433  0.76784458  0.09492705     0.11000
H463        H  0.14012481  0.91043593  0.09068606     0.11100
H464        H  0.20452711  0.97303836  0.09470565     0.11100
H465        H  0.17833590  0.97243087  0.15162345     0.11200
H466        H  0.11456918  0.91041722  0.14739126     0.10000
C467        C  0.44923859  0.26814129  0.11775543    -0.03800
C468        C  0.46047659  0.28535161  0.13513284    -0.09600
C469        C  0.49143244  0.32523396  0.13730065    -0.17200
C470        C  0.51152611  0.34841528  0.12215101     0.24900
C471        C  0.50036542  0.33160547  0.10486875    -0.18900
C472        C  0.46954041  0.29192063  0.10266457    -0.07800
C473        C  0.54464138  0.38893237  0.12405126    -0.14200
C474        C  0.57395651  0.42209504  0.12379078    -0.14000
C475        C  0.61070212  0.45989300  0.12152460     0.24800
C476        C  0.62505647  0.47364277  0.10409127    -0.19400
C477        C  0.66269113  0.50783457  0.10160241    -0.07800
C478        C  0.68672038  0.52895449  0.11655124    -0.03900
C479        C  0.67133788  0.51581029  0.13405817    -0.09200
C480        C  0.63364211  0.48145249  0.13650967    -0.16900
H481        H  0.44564290  0.26793176  0.14705254     0.11300
H482        H  0.49993048  0.33780872  0.15077007     0.10600
H483        H  0.51583106  0.34910961  0.09304624     0.10500
H484        H  0.46197361  0.27977077  0.08909776     0.11000
H485        H  0.60765903  0.45720546  0.09237630     0.11100
H486        H  0.67342947  0.51700763  0.08793774     0.11100
H487        H  0.68901699  0.53118345  0.14586737     0.11200
H488        H  0.62295063  0.47106465  0.15007663     0.10000
C489        C  0.79384750  0.78313946  0.12224538    -0.03800
C490        C  0.78243407  0.79163904  0.10550070    -0.09600
C491        C  0.78417218  0.82856941  0.10270050    -0.17200
C492        C  0.79720448  0.85725186  0.11660894     0.24900
C493        C  0.80750340  0.84849926  0.13338291    -0.18900
C494        C  0.80580579  0.81186991  0.13620495    -0.07800
C495        C  0.80167096  0.89640136  0.11392489    -0.14200
C496        C  0.80836730  0.93060808  0.11413880    -0.14000
C497        C  0.81904845  0.97191351  0.11697129     0.24800
C498        C  0.82263654  0.98649939  0.13463671    -0.23000
C499        C  0.83531967  0.02698594  0.13775016    -0.07800
C500        C  0.84480773  0.05369808  0.12320070    -0.03900
C501        C  0.84045909  0.03862309  0.10544703    -0.09200
C502        C  0.82770289  0.99800870  0.10236921    -0.16900
H503        H  0.77322420  0.77027816  0.09445483     0.11300
H504        H  0.77610216  0.83500483  0.08963798     0.10600
H505        H  0.81760816  0.87039196  0.14424955     0.10500
H506        H  0.81477364  0.80649453  0.14927254     0.11000
H507        H  0.81623801  0.96665181  0.14605464     0.11100
H508        H  0.83841545  0.03747013  0.15157804     0.11100
H509        H  0.84751725  0.05831249  0.09393130     0.11200
H510        H  0.82521444  0.98714153  0.08863297     0.10000
C511        C  0.85501239  0.29392478  0.11484782    -0.03800
C512        C  0.86271633  0.31894475  0.09976170    -0.09600
C513        C  0.86748434  0.35728190  0.10179806    -0.17200
C514        C  0.86450689  0.37128678  0.11890764     0.24900
C515        C  0.85778221  0.34703378  0.13406874    -0.18900
C516        C  0.85321829  0.30869658  0.13208088    -0.07800
C517        C  0.86558119  0.40927243  0.12059708    -0.14200
C518        C  0.86354368  0.43964792  0.12082458    -0.14000
C519        C  0.85738576  0.47366302  0.11946747     0.24800
C520        C  0.85383962  0.49275502  0.13497682    -0.19400
C521        C  0.84402975  0.52320781  0.13343955    -0.07800
C522        C  0.83747880  0.53485329  0.11633564    -0.03900
C523        C  0.84237539  0.51623392  0.10085649    -0.09200
C524        C  0.85218407  0.48596395  0.10243028    -0.16900
H525        H  0.86423264  0.30858490  0.08630513     0.11300
H526        H  0.87248486  0.37562087  0.08993848     0.10600
H527        H  0.85509111  0.35734452  0.14737195     0.10500
H528        H  0.84690395  0.29012160  0.14395590     0.11000
H529        H  0.85771615  0.48347983  0.14826058     0.11100
H530        H  0.84064288  0.53690793  0.14563715     0.11100
H531        H  0.83781681  0.52443346  0.08746223     0.11200
H532        H  0.85475883  0.47144925  0.09032057     0.10000
C533        C  0.54397033  0.66964266  0.88751645    -0.03800
C534        C  0.53060668  0.65247323  0.87026919    -0.09600
C535        C  0.49649562  0.61426281  0.86842442    -0.17200
C536        C  0.47542264  0.59265995  0.88376508     0.24900
C537        C  0.48965144  0.60872092  0.90094549    -0.18900
C538        C  0.52358986  0.64676314  0.90282577    -0.07800
C539        C  0.43751168  0.55568147  0.88209556    -0.14200
C540        C  0.40426826  0.52640588  0.88201926    -0.14000
C541        C  0.36351454  0.49337242  0.88337337     0.24800
C542        C  0.34644702  0.47942824  0.90042115    -0.19400
C543        C  0.30630849  0.44912001  0.90199873    -0.07800
C544        C  0.28242524  0.43209960  0.88651209    -0.03900
C545        C  0.30001242  0.44585840  0.86938875    -0.09200
C546        C  0.34022440  0.47634903  0.86785214    -0.16900
H547        H  0.54550714  0.66915455  0.85819787     0.11300
H548        H  0.48580538  0.60219257  0.85503581     0.10600
H549        H  0.47368831  0.59239272  0.91293119     0.10500
H550        H  0.53298997  0.65879377  0.91631998     0.11000
H551        H  0.36403664  0.49241093  0.91254698     0.11100
H552        H  0.29391007  0.43929722  0.91538957     0.11100
H553        H  0.28253199  0.43360057  0.85718578     0.11200
H554        H  0.35296242  0.48700469  0.85457338     0.10000
C555        C  0.77603142  0.90886169  0.87806857    -0.03800
C556        C  0.78757982  0.92562847  0.89549006    -0.09600
C557        C  0.81484379  0.96671932  0.89773075    -0.17200
C558        C  0.83084202  0.99159992  0.88261807     0.24900
C559        C  0.81927883  0.97524720  0.86527185    -0.18900
C560        C  0.79214655  0.93430022  0.86299361    -0.07800
C561        C  0.86037175  0.03355785  0.88465410    -0.14200
C562        C  0.88681424  0.06827477  0.88469623    -0.14000
C563        C  0.92042587  0.10836208  0.88253321     0.24800
C564        C  0.93593417  0.12166458  0.86521813    -0.19400
C565        C  0.97082132  0.15870171  0.86287628    -0.07800
C566        C  0.99088131  0.18323050  0.87784883    -0.03900
C567        C  0.97422876  0.17040408  0.89519700    -0.09200
C568        C  0.93927199  0.13308173  0.89751846    -0.16900
H569        H  0.77591147  0.90695745  0.90737867     0.11300
H570        H  0.82374457  0.97897415  0.91122931     0.10600
H571        H  0.83159582  0.99411002  0.85346067     0.10500
H572        H  0.78407674  0.92255706  0.84937972     0.11000
H573        H  0.92167632  0.10283047  0.85352150     0.11100
H574        H  0.98269582  0.16761190  0.84934437     0.11100
H575        H  0.98906651  0.18840908  0.90702228     0.11200
H576        H  0.92763788  0.12306743  0.91100869     0.10000
C577        C  0.54469672  0.81746371  0.88591031    -0.03800
C578        C  0.53521287  0.82580579  0.86867850    -0.09600
C579        C  0.50464003  0.83520769  0.86658018    -0.17200
C580        C  0.48316424  0.83646341  0.88164911     0.24900
C581        C  0.49262459  0.82857710  0.89882792    -0.18900
C582        C  0.52310317  0.81921145  0.90096635    -0.07800
C583        C  0.45044430  0.84437306  0.87963845    -0.14200
C584        C  0.42142082  0.84868651  0.87945718    -0.14000
C585        C  0.38488974  0.85032395  0.88122599     0.24800
C586        C  0.37138633  0.85304339  0.89846473    -0.19400
C587        C  0.33371081  0.84958996  0.90071228    -0.07800
C588        C  0.30880680  0.84338571  0.88571479    -0.03900
C589        C  0.32340055  0.84260860  0.86831466    -0.09200
C590        C  0.36115378  0.84588867  0.86610676    -0.16900
H591        H  0.55109625  0.82465753  0.85678890     0.11300
H592        H  0.49749469  0.84107510  0.85319644     0.10600
H593        H  0.47611356  0.82925104  0.91059059     0.10500
H594        H  0.52938736  0.81288117  0.91442400     0.11000
H595        H  0.38940393  0.85640204  0.91027423     0.11100
H596        H  0.32353823  0.85042764  0.91428538     0.11100
H597        H  0.30492558  0.83759347  0.85649429     0.11200
H598        H  0.37118612  0.84357413  0.85268931     0.10000
C599        C  0.79240142  0.77122525  0.87992753    -0.03800
C600        C  0.81717124  0.77480193  0.86517714    -0.09600
C601        C  0.85353526  0.77570352  0.86785396    -0.17200
C602        C  0.86589701  0.77293085  0.88527976     0.24900
C603        C  0.84081150  0.76774054  0.90003296    -0.18900
C604        C  0.80421916  0.76676740  0.89738385    -0.07800
C605        C  0.90538344  0.77790493  0.88776920    -0.14200
C606        C  0.93970018  0.78480561  0.88778413    -0.14000
C607        C  0.98127560  0.79582503  0.88538967     0.24800
C608        C  0.00722092  0.80570638  0.90019868    -0.19400
C609        C  0.04822508  0.81955803  0.89745779    -0.07800
C610        C  0.06382023  0.82377510  0.87983774    -0.03900
C611        C  0.03714746  0.81259155  0.86511790    -0.09200
C612        C  0.99636719  0.79887635  0.86788696    -0.16900
H613        H  0.80913283  0.77823372  0.85156208     0.11300
H614        H  0.87261290  0.77972930  0.85632256     0.10600
H615        H  0.85000295  0.76557500  0.91360585     0.10500
H616        H  0.78598239  0.76405971  0.90905674     0.11000
H617        H  0.99596073  0.80354952  0.91382550     0.11100
H618        H  0.06781208  0.82778459  0.90909250     0.11100
H619        H  0.04790213  0.81537169  0.85136407     0.11200
H620        H  0.97671211  0.79146833  0.85630105     0.10000
C621        C  0.69938291  0.76632474  0.94696052    -0.03800
C622        C  0.74031885  0.77830990  0.94874874    -0.09600
C623        C  0.75429300  0.76836123  0.96424236    -0.17200
C624        C  0.72762711  0.74642228  0.97817337     0.24900
C625        C  0.68694297  0.73452618  0.97652361    -0.18900
C626        C  0.67289871  0.74433921  0.96106061    -0.07800
C627        C  0.74163924  0.73570216  0.99412454    -0.14200
C628        C  0.75163563  0.72550528  0.00764946    -0.14000
C629        C  0.76171877  0.71174199  0.02386605     0.24800
C630        C  0.74632134  0.67061138  0.02657841    -0.19400
C631        C  0.75529980  0.65691162  0.04239314    -0.07800
C632        C  0.77983957  0.68418080  0.05580646    -0.03900
C633        C  0.79528079  0.72553829  0.05295192    -0.09200
C634        C  0.78626339  0.73917465  0.03709202    -0.16900
H635        H  0.76148021  0.79501936  0.93811107     0.11300
H636        H  0.78583865  0.77764617  0.96531803     0.10600
H637        H  0.66598318  0.71748747  0.98718138     0.10500
H638        H  0.64123031  0.73455603  0.96013394     0.11000
H639        H  0.72718227  0.64905656  0.01648863     0.11100
H640        H  0.74281105  0.62491051  0.04414503     0.11100
H641        H  0.81413840  0.74735760  0.06300821     0.11200
H642        H  0.79826770  0.77108381  0.03519388     0.10000
C643        C  0.81504527  0.17373420  0.18744136    -0.03800
C644        C  0.80705911  0.20439996  0.19251877    -0.09600
C645        C  0.79923637  0.20899211  0.21069195    -0.17200
C646        C  0.79891276  0.18272552  0.22387294     0.24900
C647        C  0.80518042  0.15127322  0.21872154    -0.18900
C648        C  0.81319653  0.14681639  0.20073478    -0.07800
C649        C  0.79503314  0.18870135  0.24289918    -0.14200
C650        C  0.79534578  0.18917412  0.25923744    -0.14000
C651        C  0.79978866  0.18424072  0.27827593     0.24800
C652        C  0.80036543  0.14984933  0.28387207    -0.19400
C653        C  0.80972268  0.14624310  0.30171145    -0.07800
C654        C  0.81834319  0.17685929  0.31437078    -0.03900
C655        C  0.81584926  0.21057562  0.30895582    -0.09200
C656        C  0.80694909  0.21440626  0.29092179    -0.16900
H657        H  0.80849388  0.22572015  0.18261888     0.11300
H658        H  0.79455912  0.23356818  0.21451113     0.10600
H659        H  0.80505253  0.13075974  0.22874696     0.10500
H660        H  0.81896799  0.12274999  0.19732304     0.11000
H661        H  0.79498836  0.12634500  0.27425078     0.11100
H662        H  0.81120614  0.11985851  0.30551444     0.11100
H663        H  0.82268766  0.23474190  0.31841223     0.11200
H664        H  0.80688556  0.24132326  0.28674600     0.10000
C665        C  0.18468026  0.35435460  0.68797394    -0.03800
C666        C  0.18403687  0.32769871  0.70111809    -0.09600
C667        C  0.19409259  0.33991573  0.71902487    -0.17200
C668        C  0.20501140  0.37899926  0.72428161     0.24900
C669        C  0.20723165  0.40644587  0.71124468    -0.18900
C670        C  0.19731788  0.39424491  0.69312467    -0.07800
C671        C  0.21076151  0.38876228  0.74332059    -0.14200
C672        C  0.21076658  0.38844245  0.75966337    -0.14000
C673        C  0.20504637  0.37865668  0.77867123     0.24800
C674        C  0.20246886  0.40437879  0.79142386    -0.19400
C675        C  0.19141421  0.39166476  0.80934843    -0.07800
C676        C  0.18221986  0.35284145  0.81458493    -0.03900
C677        C  0.18674530  0.32807804  0.80186537    -0.09200
C678        C  0.19811961  0.34092293  0.78410815    -0.16900
H679        H  0.17476923  0.29687400  0.69766884     0.11300
H680        H  0.19218249  0.31835726  0.72892989     0.10600
H681        H  0.21551743  0.43679857  0.71514604     0.10500
H682        H  0.19800373  0.41543140  0.68334667     0.11000
H683        H  0.20758989  0.43360154  0.78738617     0.11100
H684        H  0.18813813  0.41135674  0.81884191     0.11100
H685        H  0.18031554  0.29819282  0.80550304     0.11200
H686        H  0.19997279  0.32069753  0.77441255     0.10000
C687        C  0.91736994  0.19934607  0.44680473    -0.03800
C688        C  0.91468969  0.22385600  0.46030732    -0.09600
C689        C  0.93749556  0.23293694  0.47612471    -0.17200
C690        C  0.96329957  0.21762940  0.47879948     0.24900
C691        C  0.96553234  0.19244764  0.46565518    -0.18900
C692        C  0.94274108  0.18333419  0.44977347    -0.07800
C693        C  0.98822897  0.22888209  0.49477652    -0.14200
C694        C  0.00922946  0.23989056  0.50810752    -0.14000
C695        C  0.03425351  0.25435785  0.52404331     0.24800
C696        C  0.03422425  0.22728155  0.53664026    -0.19400
C697        C  0.05783339  0.24139381  0.55226636    -0.07800
C698        C  0.08196557  0.28290507  0.55552776    -0.03900
C699        C  0.08202600  0.30987319  0.54270115    -0.09200
C700        C  0.05832038  0.29568641  0.52712109    -0.16900
H701        H  0.89540260  0.23659118  0.45854868     0.11300
H702        H  0.93539069  0.25238987  0.48617330     0.10600
H703        H  0.98531063  0.18031107  0.46755839     0.10500
H704        H  0.94544317  0.16426417  0.43971992     0.11000
H705        H  0.01574188  0.19523216  0.53444918     0.11100
H706        H  0.05700546  0.21978318  0.56183574     0.11100
H707        H  0.10009694  0.34198670  0.54477520     0.11200
H708        H  0.05860068  0.31699832  0.51751847     0.10000
C709        C  0.18623540  0.80186408  0.81443426    -0.03800
C710        C  0.15649789  0.79524709  0.80168875    -0.09600
C711        C  0.16050437  0.78689417  0.78369138    -0.17200
C712        C  0.19434758  0.78518972  0.77805004     0.24900
C713        C  0.22369259  0.79058133  0.79070705    -0.18900
C714        C  0.21951726  0.79859021  0.80887320    -0.07800
C715        C  0.19948874  0.78090969  0.75901743    -0.14200
C716        C  0.19933242  0.78066617  0.74270532    -0.14000
C717        C  0.19402625  0.78492541  0.72373537     0.24800
C718        C  0.22111182  0.78604078  0.71070621    -0.19400
C719        C  0.21761552  0.79493362  0.69265304    -0.07800
C720        C  0.18731841  0.80331577  0.68759981    -0.03900
C721        C  0.15938699  0.80039597  0.70067041    -0.09200
C722        C  0.16270880  0.79122496  0.71854516    -0.16900
H723        H  0.13046675  0.79741311  0.80555533     0.11300
H724        H  0.13767612  0.78293465  0.77403240     0.10600
H725        H  0.25019125  0.78965005  0.78646970     0.10500
H726        H  0.24304501  0.80391151  0.81837244     0.11000
H727        H  0.24555260  0.78130732  0.71458039     0.11100
H728        H  0.23958201  0.79704848  0.68286692     0.11100
H729        H  0.13549661  0.80628427  0.69718362     0.11200
H730        H  0.14155627  0.79041735  0.72848136     0.10000
C731        C  0.15992581  0.69506216  0.61749677    -0.03800
C732        C  0.15624716  0.67089128  0.60244852    -0.09600
C733        C  0.14753469  0.63130238  0.60472877    -0.17200
C734        C  0.14223561  0.61499486  0.62204917     0.24900
C735        C  0.14487324  0.63835855  0.63713349    -0.18900
C736        C  0.15360507  0.67812616  0.63488823    -0.07800
C737        C  0.13633286  0.57508857  0.62409428    -0.14200
C738        C  0.13407752  0.54260673  0.62398530    -0.14000
C739        C  0.13472696  0.50563598  0.62172903     0.24800
C740        C  0.13688914  0.48463148  0.63669552    -0.19400
C741        C  0.14125881  0.45084775  0.63419532    -0.07800
C742        C  0.14373037  0.43777183  0.61666077    -0.03900
C743        C  0.14024081  0.45843291  0.60174835    -0.09200
C744        C  0.13581624  0.49203408  0.60428356    -0.16900
H745        H  0.16083334  0.68274772  0.58886543     0.11300
H746        H  0.14569271  0.61360790  0.59294914     0.10600
H747        H  0.14093605  0.62612485  0.65062549     0.10500
H748        H  0.15616942  0.69579547  0.64677233     0.11000
H749        H  0.13624365  0.49494215  0.65027557     0.11100
H750        H  0.14402837  0.43581753  0.64597486     0.11100
H751        H  0.14201111  0.44932616  0.58806450     0.11200
H752        H  0.13430322  0.50806875  0.59258819     0.10000
C753        C  0.20243998  0.98699564  0.62187514    -0.03800
C754        C  0.20258107  0.00971326  0.63687341    -0.09600
C755        C  0.20192899  0.04540315  0.63448474    -0.17200
C756        C  0.20087480  0.05895990  0.61709165     0.24900
C757        C  0.20165134  0.03708868  0.60203550    -0.18900
C758        C  0.20265235  0.00142171  0.60439803    -0.07800
C759        C  0.19672022  0.09403117  0.61497940    -0.14200
C760        C  0.19088240  0.12213411  0.61492704    -0.14000
C761        C  0.18121502  0.15371706  0.61699381     0.24800
C762        C  0.16652614  0.16573244  0.60243024    -0.19400
C763        C  0.15359975  0.19363334  0.60508704    -0.07800
C764        C  0.15502288  0.20972176  0.62239553    -0.03900
C765        C  0.17105123  0.19833737  0.63678085    -0.09200
C766        C  0.18396061  0.17059370  0.63408725    -0.16900
H767        H  0.20248981  0.99952289  0.65049980     0.11300
H768        H  0.20128201  0.06195994  0.64624945     0.10600
H769        H  0.20060864  0.04711074  0.58849736     0.10500
H770        H  0.20211321  0.98441914  0.59258632     0.11000
H771        H  0.16413077  0.15281922  0.58913273     0.11100
H772        H  0.14148966  0.20172793  0.59371478     0.11100
H773        H  0.17279172  0.21014579  0.65026902     0.11200
H774        H  0.19516261  0.16152195  0.64548169     0.10000
C775        C  0.36864463  0.16243836  0.18812256    -0.03800
C776        C  0.40447813  0.16497909  0.19417288    -0.09600
C777        C  0.41607121  0.17405740  0.21234483    -0.17200
C778        C  0.39228464  0.18130612  0.22447332     0.24900
C779        C  0.35778087  0.18082258  0.21824500    -0.18900
C780        C  0.34597111  0.17134986  0.20026339    -0.07800
C781        C  0.40019121  0.18528069  0.24362372    -0.14200
C782        C  0.39928769  0.18473325  0.25993347    -0.14000
C783        C  0.38974106  0.17958020  0.27893902     0.24800
C784        C  0.35299114  0.17500854  0.28464313    -0.19400
C785        C  0.34076481  0.16545699  0.30257946    -0.07800
C786        C  0.36524340  0.16053404  0.31518280    -0.03900
C787        C  0.40290808  0.16676436  0.30957697    -0.09200
C788        C  0.41496670  0.17596432  0.29148375    -0.16900
H789        H  0.42232308  0.15797251  0.18512052     0.11300
H790        H  0.44269981  0.17405068  0.21704509     0.10600
H791        H  0.33906031  0.18624073  0.22748089     0.10500
H792        H  0.31838156  0.16988209  0.19596181     0.11000
H793        H  0.33314691  0.17759945  0.27507351     0.11100
H794        H  0.31167760  0.16103666  0.30650010     0.11100
H795        H  0.42218143  0.16282471  0.31896964     0.11200
H796        H  0.44335417  0.17914054  0.28719471     0.10000
C797        C  0.21038703  0.89665779  0.55460242    -0.03800
C798        C  0.23050688  0.88977468  0.54033117    -0.09600
C799        C  0.23868278  0.91138026  0.52423896    -0.17200
C800        C  0.22690059  0.94014683  0.52215923     0.24900
C801        C  0.20630156  0.94678491  0.53615315    -0.18900
C802        C  0.19800062  0.92514240  0.55226496    -0.07800
C803        C  0.23747899  0.96393709  0.50596432    -0.14200
C804        C  0.24830764  0.98470054  0.49264276    -0.14000
C805        C  0.26332021  0.01033989  0.47704439     0.24800
C806        C  0.23679626  0.01291603  0.46496707    -0.19400
C807        C  0.25161210  0.03785524  0.44983425    -0.07800
C808        C  0.29325078  0.06071985  0.44661322    -0.03900
C809        C  0.31962411  0.05797007  0.45887696    -0.09200
C810        C  0.30472287  0.03290589  0.47395556    -0.16900
H811        H  0.24032658  0.86798506  0.54165461     0.11300
H812        H  0.25469992  0.90603563  0.51351112     0.10600
H813        H  0.19714293  0.96907117  0.53471027     0.10500
H814        H  0.18248816  0.93119003  0.56298005     0.11000
H815        H  0.20468725  0.99559113  0.46721336     0.11100
H816        H  0.23044604  0.03914469  0.44064100     0.11100
H817        H  0.35176490  0.07489904  0.45674346     0.11200
H818        H  0.32552564  0.03108107  0.48320150     0.10000
C819        C  0.22018500  0.13286789  0.37930001    -0.03800
C820        C  0.20885576  0.13777195  0.39683894    -0.09600
C821        C  0.18175067  0.15171789  0.39932272    -0.17200
C822        C  0.16583647  0.16105249  0.38433039     0.24900
C823        C  0.17801282  0.15754409  0.36692536    -0.18900
C824        C  0.20496477  0.14366178  0.36440890    -0.07800
C825        C  0.13490297  0.17147526  0.38640559    -0.14200
C826        C  0.10695599  0.17744387  0.38610817    -0.14000
C827        C  0.07191536  0.18133169  0.38362549     0.24800
C828        C  0.05327655  0.17272275  0.36670344    -0.19400
C829        C  0.01800871  0.17407477  0.36423686    -0.07800
C830        C  0.00070221  0.18408281  0.37869471    -0.03900
C831        C  0.02014115  0.19360865  0.39558539    -0.09200
C832        C  0.05548917  0.19212200  0.39803190    -0.16900
H833        H  0.22016633  0.12996730  0.40859952     0.11300
H834        H  0.17249571  0.15427366  0.41287338     0.10600
H835        H  0.16585282  0.16459415  0.35522201     0.10500
H836        H  0.21311738  0.14051590  0.35072876     0.11000
H837        H  0.06566351  0.16428794  0.35545411     0.11100
H838        H  0.00395896  0.16661806  0.35104717     0.11100
H839        H  0.00751458  0.20119246  0.40701303     0.11200
H840        H  0.06960106  0.19872982  0.41120960     0.10000
C841        C  0.45213152  0.12731166  0.38723624    -0.03800
C842        C  0.47559925  0.12923418  0.40219436    -0.09600
C843        C  0.51072820  0.12747798  0.39981397    -0.17200
C844        C  0.52308836  0.12366092  0.38248383     0.24900
C845        C  0.49964678  0.12089616  0.36750699    -0.18900
C846        C  0.46436508  0.12265620  0.36985111    -0.07800
C847        C  0.56063244  0.12418843  0.38028107    -0.14200
C848        C  0.59321120  0.12670627  0.38012606    -0.14000
C849        C  0.63307640  0.13248282  0.38200636     0.24800
C850        C  0.65420015  0.13019571  0.36701663    -0.19400
C851        C  0.69387828  0.13848773  0.36896637    -0.07800
C852        C  0.71288488  0.14915378  0.38596682    -0.03900
C853        C  0.69091437  0.15031766  0.40098289    -0.09200
C854        C  0.65145276  0.14215304  0.39898834    -0.16900
H855        H  0.46740376  0.13311219  0.41575779     0.11300
H856        H  0.52867673  0.12983426  0.41150748     0.10600
H857        H  0.50899791  0.11812966  0.35400724     0.10500
H858        H  0.44732404  0.12150560  0.35802141     0.11000
H859        H  0.64028816  0.12270809  0.35379302     0.11100
H860        H  0.70982432  0.13715376  0.35713714     0.11100
H861        H  0.70446842  0.15843466  0.41426093     0.11200
H862        H  0.63546795  0.14408181  0.41068514     0.10000
C863        C  0.80867943  0.61275607  0.31426612    -0.03800
C864        C  0.77868722  0.57376224  0.30928397    -0.09600
C865        C  0.77579689  0.56054397  0.29133663    -0.17200
C866        C  0.80314561  0.58600321  0.27831760     0.24900
C867        C  0.83383451  0.62418059  0.28339203    -0.18900
C868        C  0.83657977  0.63748132  0.30116056    -0.07800
C869        C  0.79845394  0.57548322  0.25940141    -0.14200
C870        C  0.79825788  0.57572577  0.24308758    -0.14000
C871        C  0.80244698  0.58733848  0.22436077     0.24800
C872        C  0.82461093  0.62821683  0.22035226    -0.19400
C873        C  0.82718659  0.64140132  0.20266268    -0.07800
C874        C  0.80756357  0.61393643  0.18848242    -0.03900
C875        C  0.78612138  0.57260845  0.19247230    -0.09200
C876        C  0.78350960  0.55937674  0.21037602    -0.16900
H877        H  0.75663375  0.55416047  0.31905776     0.11300
H878        H  0.75167454  0.53104876  0.28753220     0.10600
H879        H  0.85501573  0.64426754  0.27344262     0.10500
H880        H  0.86012605  0.66758236  0.30453544     0.11000
H881        H  0.83935134  0.65016015  0.23102554     0.11100
H882        H  0.84409847  0.67340823  0.20019447     0.11100
H883        H  0.77065780  0.55071780  0.18188359     0.11200
H884        H  0.76618499  0.52759977  0.21333444     0.10000
C885        C  0.79503242  0.78584398  0.37771171    -0.03800
C886        C  0.78310951  0.79497488  0.39425797    -0.09600
C887        C  0.78352320  0.83141842  0.39658790    -0.17200
C888        C  0.79573814  0.85914927  0.38242024     0.24900
C889        C  0.80686526  0.84995349  0.36584371    -0.18900
C890        C  0.80652260  0.81371001  0.36348810    -0.07800
C891        C  0.79861096  0.89779268  0.38484102    -0.14200
C892        C  0.80397708  0.93154846  0.38528745    -0.14000
C893        C  0.81385796  0.97291796  0.38379936     0.24800
C894        C  0.80708500  0.98673425  0.36746647    -0.19400
C895        C  0.82104779  0.02763782  0.36499097    -0.07800
C896        C  0.84206562  0.05550191  0.37885052    -0.03900
C897        C  0.84730377  0.04116780  0.39551294    -0.09200
C898        C  0.83341582  0.00015594  0.39793092    -0.16900
H899        H  0.77431760  0.77439447  0.40552078     0.11300
H900        H  0.77495737  0.83821896  0.40951258     0.10600
H901        H  0.81647635  0.87115248  0.35478255     0.10500
H902        H  0.81596682  0.80788294  0.35057444     0.11000
H903        H  0.79210700  0.96602310  0.35640636     0.11100
H904        H  0.81624381  0.03752765  0.35203894     0.11100
H905        H  0.86333728  0.06176165  0.40646279     0.11200
H906        H  0.83902613  0.98989738  0.41061544     0.10000
C907        C  0.85853582  0.29659516  0.38699020    -0.03800
C908        C  0.85813988  0.31185166  0.36976443    -0.09600
C909        C  0.86097046  0.34949084  0.36797318    -0.17200
C910        C  0.86454600  0.37252855  0.38333606     0.24900
C911        C  0.86674844  0.35832338  0.40042459    -0.18900
C912        C  0.86378086  0.32075453  0.40225602    -0.07800
C913        C  0.86318539  0.40933094  0.38187318    -0.14200
C914        C  0.85957062  0.43883780  0.38187891    -0.14000
C915        C  0.85267466  0.47246491  0.38321874     0.24800
C916        C  0.85095909  0.48758113  0.40023957    -0.19400
C917        C  0.84161190  0.51826583  0.40181847    -0.07800
C918        C  0.83373137  0.53447503  0.38636476    -0.03900
C919        C  0.83645736  0.51973831  0.36925624    -0.09200
C920        C  0.84576573  0.48891822  0.36771815    -0.16900
H921        H  0.85392752  0.29402205  0.35773359     0.11300
H922        H  0.85913953  0.36004420  0.35465883     0.10600
H923        H  0.86951070  0.37577140  0.41242757     0.10500
H924        H  0.86432987  0.31010625  0.41571280     0.11000
H925        H  0.85616069  0.47514201  0.41235617     0.11100
H926        H  0.83995548  0.52883355  0.41520699     0.11100
H927        H  0.83058268  0.53141054  0.35707224     0.11200
H928        H  0.84688445  0.47746432  0.35445591     0.10000
C929        C  0.92537002  0.75973896  0.38020168    -0.03800
C930        C  0.95437770  0.76830999  0.36670778    -0.09600
C931        C  0.99484242  0.79563944  0.36998049    -0.17200
C932        C  0.00706406  0.81491436  0.38675011     0.24900
C933        C  0.97863216  0.80596965  0.40044750    -0.18900
C934        C  0.93803031  0.77841439  0.39723056    -0.07800
C935        C  0.04840699  0.84556505  0.38924061    -0.14200
C936        C  0.08287288  0.87248911  0.38914898    -0.14000
C937        C  0.12283570  0.90596663  0.38656267     0.24800
C938        C  0.14722935  0.92674496  0.40133151    -0.19400
C939        C  0.18446799  0.96146699  0.39854187    -0.07800
C940        C  0.19753179  0.97600065  0.38092775    -0.03900
C941        C  0.17343343  0.95390572  0.36618665    -0.09200
C942        C  0.13644253  0.91920712  0.36900337    -0.16900
H943        H  0.94575391  0.75441798  0.35348589     0.11300
H944        H  0.01654202  0.80241798  0.35925976     0.10600
H945        H  0.98768607  0.82086326  0.41345848     0.10500
H946        H  0.91646580  0.77259737  0.40789571     0.11000
H947        H  0.13700806  0.91680511  0.41499286     0.11100
H948        H  0.20217878  0.97784156  0.41018868     0.11100
H949        H  0.18259198  0.96408148  0.35246012     0.11200
H950        H  0.11787654  0.90334465  0.35746484     0.10000
C951        C  0.68524334  0.53037028  0.38563525    -0.03800
C952        C  0.65983011  0.51264562  0.40061038    -0.09600
C953        C  0.62266991  0.47757890  0.39855507    -0.17200
C954        C  0.61027582  0.45949517  0.38154182     0.24900
C955        C  0.63468935  0.47765637  0.36643415    -0.18900
C956        C  0.67183073  0.51298109  0.36843751    -0.07800
C957        C  0.57370486  0.42117797  0.37996152    -0.14200
C958        C  0.54398981  0.38823687  0.38002750    -0.14000
C959        C  0.50971273  0.34827504  0.38173647     0.24800
C960        C  0.49394899  0.32307063  0.36662780    -0.19400
C961        C  0.46233419  0.28350839  0.36865947    -0.07800
C962        C  0.44620338  0.26847246  0.38588337    -0.03900
C963        C  0.46171032  0.29439690  0.40089877    -0.09200
C964        C  0.49312773  0.33390270  0.39881964    -0.16900
H965        H  0.66915553  0.52526267  0.41402380     0.11300
H966        H  0.60410238  0.46390060  0.41035582     0.10600
H967        H  0.62555318  0.46393863  0.35319428     0.10500
H968        H  0.69079537  0.52563241  0.35666366     0.11000
H969        H  0.50654366  0.33373859  0.35332851     0.11100
H970        H  0.45127357  0.26441053  0.35681217     0.11100
H971        H  0.45000171  0.28399613  0.41433632     0.11200
H972        H  0.50500985  0.35304492  0.41062634     0.10000
C973        C  0.63142589  0.79452027  0.68854209    -0.03800
C974        C  0.65844009  0.81589517  0.70258493    -0.09600
C975        C  0.64530212  0.81159265  0.72042431    -0.17200
C976        C  0.60494311  0.78592428  0.72468938     0.24900
C977        C  0.57742804  0.76481495  0.71085349    -0.18900
C978        C  0.59059254  0.76914438  0.69283001    -0.07800
C979        C  0.59341148  0.78111198  0.74347507    -0.14200
C980        C  0.59284659  0.78171924  0.75978896    -0.14000
C981        C  0.60259145  0.78723047  0.77877587     0.24800
C982        C  0.57566052  0.76170939  0.79189539    -0.19400
C983        C  0.58791530  0.76499705  0.80998001    -0.07800
C984        C  0.62739247  0.79351972  0.81503093    -0.03900
C985        C  0.65353194  0.82000592  0.80184118    -0.09200
C986        C  0.64119512  0.81687335  0.78391290    -0.16900
H987        H  0.69005517  0.83562908  0.69986472     0.11300
H988        H  0.66690359  0.82798332  0.73099231     0.10600
H989        H  0.54608819  0.74471342  0.71399724     0.10500
H990        H  0.56908346  0.75211731  0.68234694     0.11000
H991        H  0.54572936  0.73855009  0.78807696     0.11100
H992        H  0.56714252  0.74416727  0.81982283     0.11100
H993        H  0.68400797  0.84252082  0.80526378     0.11200
H994        H  0.66233390  0.83678451  0.77390417     0.10000
C995        C  0.55118346  0.67224656  0.61689310    -0.03800
C996        C  0.53589166  0.64579300  0.60206167    -0.09600
C997        C  0.50142122  0.60819835  0.60391855    -0.17200
C998        C  0.48174717  0.59646288  0.62059552     0.24900
C999        C  0.49794493  0.62163301  0.63567330    -0.18900
C1000       C  0.53262597  0.65923621  0.63387469    -0.07800
C1001       C  0.44330212  0.56023899  0.62173252    -0.14200
C1002       C  0.41000599  0.53124918  0.62144752    -0.14000
C1003       C  0.36959503  0.49808002  0.61974856     0.24800
C1004       C  0.34678935  0.47890527  0.63511091    -0.19400
C1005       C  0.30696259  0.44780792  0.63331208    -0.07800
C1006       C  0.28937899  0.43560728  0.61608584    -0.03900
C1007       C  0.31286144  0.45479340  0.60074243    -0.09200
C1008       C  0.35258324  0.48575971  0.60258173    -0.16900
H1009       H  0.54959682  0.65480566  0.58883641     0.11300
H1010       H  0.48919982  0.58895450  0.59216151     0.10600
H1011       H  0.48291837  0.61288762  0.64864489     0.10500
H1012       H  0.54352374  0.67896197  0.64553011     0.11000
H1013       H  0.35961524  0.48830096  0.64847653     0.11100
H1014       H  0.28977869  0.43384219  0.64540925     0.11100
H1015       H  0.30042825  0.44627099  0.58727606     0.11200
H1016       H  0.36989500  0.50044026  0.59059254     0.10000
C1017       C  0.77593644  0.91644066  0.62379850    -0.03800
C1018       C  0.78902986  0.94338313  0.63851134    -0.09600
C1019       C  0.81621351  0.98419231  0.63591776    -0.17200
C1020       C  0.83077272  0.99885313  0.61860948     0.24900
C1021       C  0.81713509  0.97256247  0.60379755    -0.18900
C1022       C  0.78980074  0.93164984  0.60634855    -0.07800
C1023       C  0.86168635  0.04025401  0.61642867    -0.14200
C1024       C  0.88960501  0.07426426  0.61628671    -0.14000
C1025       C  0.92498910  0.11323083  0.61842762     0.24800
C1026       C  0.94228503  0.13927309  0.60373827    -0.19400
C1027       C  0.97845225  0.17565368  0.60594043    -0.07800
C1028       C  0.99778887  0.18619867  0.62286192    -0.03900
C1029       C  0.97936537  0.16026779  0.63759031    -0.09200
C1030       C  0.94339524  0.12419126  0.63536963    -0.16900
H1031       H  0.77892255  0.93284311  0.65211495     0.11300
H1032       H  0.82661968  0.00417864  0.64750389     0.10600
H1033       H  0.82830995  0.98349244  0.59034190     0.10500
H1034       H  0.78039302  0.91179994  0.59472788     0.11000
H1035       H  0.92833889  0.13108788  0.59053333     0.11100
H1036       H  0.99184903  0.19484896  0.59431973     0.11100
H1037       H  0.99318541  0.16739023  0.65082865     0.11200
H1038       H  0.93036942  0.10435669  0.64683848     0.10000
C1039       C  0.30773651  0.84017220  0.61545734    -0.03800
C1040       C  0.33215836  0.84500392  0.60038323    -0.09600
C1041       C  0.36925433  0.84715819  0.60258056    -0.17200
C1042       C  0.38252591  0.84456084  0.61983959     0.24900
C1043       C  0.35931682  0.84155016  0.63498760    -0.18900
C1044       C  0.32223989  0.83957247  0.63283667    -0.07800
C1045       C  0.41854809  0.84223489  0.62175678    -0.14200
C1046       C  0.44756170  0.83800209  0.62207761    -0.14000
C1047       C  0.48082428  0.83088747  0.62058846     0.24800
C1048       C  0.50357254  0.83315119  0.63575748    -0.19400
C1049       C  0.53525567  0.82521403  0.63406101    -0.07800
C1050       C  0.54449784  0.81492268  0.61713800    -0.03900
C1051       C  0.52148519  0.81302345  0.60200561    -0.09200
C1052       C  0.48995279  0.82088413  0.60374477    -0.16900
H1053       H  0.32200800  0.84571786  0.58682958     0.11300
H1054       H  0.38698629  0.84952009  0.59075445     0.10600
H1055       H  0.36925705  0.83943416  0.64840850     0.10500
H1056       H  0.30414750  0.83567995  0.64471754     0.11000
H1057       H  0.49668360  0.84078876  0.64888445     0.11100
H1058       H  0.55228395  0.82688621  0.64598096     0.11100
H1059       H  0.52754348  0.80509247  0.58877602     0.11200
H1060       H  0.47249068  0.81891414  0.59192480     0.10000
C1061       C  0.80039661  0.78359409  0.62225405    -0.03800
C1062       C  0.81435972  0.78321034  0.60467056    -0.09600
C1063       C  0.85113951  0.78464934  0.60208164    -0.17200
C1064       C  0.87408147  0.78609139  0.61701924     0.24900
C1065       C  0.85970327  0.78504573  0.63450206    -0.18900
C1066       C  0.82319753  0.78384896  0.63712277    -0.07800
C1067       C  0.91343179  0.79099857  0.61473313    -0.14200
C1068       C  0.94745418  0.79736878  0.61478635    -0.14000
C1069       C  0.98853159  0.80721421  0.61696646     0.24800
C1070       C  0.00121893  0.80034812  0.63359190    -0.19400
C1071       C  0.04166219  0.81274726  0.63641614    -0.07800
C1072       C  0.07003406  0.83217881  0.62260106    -0.03900
C1073       C  0.05683455  0.83807595  0.60576512    -0.09200
C1074       C  0.01634098  0.82581111  0.60300718    -0.16900
H1075       H  0.79764102  0.78331569  0.59294284     0.11300
H1076       H  0.86208806  0.78561413  0.58848033     0.10600
H1077       H  0.87724560  0.78619360  0.64615219     0.10500
H1078       H  0.81328091  0.78404592  0.65081680     0.11000
H1079       H  0.97995668  0.78614978  0.64451847     0.11100
H1080       H  0.05078854  0.80768012  0.64951000     0.11100
H1081       H  0.07794093  0.85316604  0.59488870     0.11200
H1082       H  0.00688870  0.83154927  0.59012957     0.10000
C1083       C  0.70380297  0.77141911  0.55575623    -0.03800
C1084       C  0.74528840  0.78968616  0.55230676    -0.09600
C1085       C  0.75927488  0.78028035  0.53656096    -0.17200
C1086       C  0.73199467  0.75250471  0.52413889     0.24900
C1087       C  0.69078702  0.73435257  0.52745935    -0.18900
C1088       C  0.67676852  0.74372505  0.54310389    -0.07800
C1089       C  0.74576254  0.74197246  0.50802257    -0.14200
C1090       C  0.75458748  0.73107617  0.49432412    -0.14000
C1091       C  0.76290311  0.71632918  0.47790442     0.24800
C1092       C  0.74220759  0.67512020  0.47412149    -0.19400
C1093       C  0.74994378  0.66061997  0.45814296    -0.07800
C1094       C  0.77840847  0.68723694  0.44567452    -0.03900
C1095       C  0.79893158  0.72865125  0.44956506    -0.09200
C1096       C  0.79124187  0.74305289  0.46559011    -0.16900
H1097       H  0.76688159  0.81101270  0.56179715     0.11300
H1098       H  0.79128003  0.79447507  0.53413018     0.10600
H1099       H  0.66941600  0.71275198  0.51796834     0.10500
H1100       H  0.64467804  0.72895615  0.54534258     0.11000
H1101       H  0.72004786  0.65418138  0.48352128     0.11100
H1102       H  0.73349058  0.62861778  0.45551959     0.11100
H1103       H  0.82100965  0.74993943  0.44025237     0.11200
H1104       H  0.80734074  0.77501740  0.46835476     0.10000
loop_ 
_geom_bond_atom_site_label_1 
_geom_bond_atom_site_label_2 
_geom_bond_distance 
_geom_bond_site_symmetry_2 
_ccdc_geom_bond_type 
O1           Ni7   1.933       .  S
O1           C22   1.272       .  A
O2          Ni25   1.913       .  S
O2           C11   1.268       .  A
O3           Ni7   1.909       .  S
O3          Ni25   1.910       .  S
O3          Ni19   1.905       .  S
O3           H26   0.967       .  S
C4           O21   1.271       .  A
C4           O13   1.275       .  A
C4         C1061   1.481       .  S
O5          Ni24   1.928       .  S
O5           C11   1.271       .  A
O6          Ni24   1.906       .  S
O6            C8   1.269       .  A
Ni7          O10   1.921       .  S
Ni7          O12   1.903       .  S
C8           O18   1.274       .  A
C8         C1017   1.486       .  S
O9          Ni25   1.921       .  S
O9           C15   1.277       .  A
O10          C15   1.277       .  A
C11         C973   1.485       .  S
O12          C14   1.268       .  A
O13         Ni24   1.927       .  S
C14          O20   1.272       .  A
C14         C995   1.481       .  S
C15        C1050   1.485       .  S
H16          O17   0.966       .  S
O17         Ni25   1.916       .  S
O17         Ni19   1.913       .  S
O17         Ni24   1.914       .  S
O18         Ni19   1.934       .  S
Ni19         O23   1.905       .  S
Ni19         O21   1.906       .  S
O20         Ni25   1.926       .  S
C22          O23   1.266       .  A
C22        C1083   1.483       .  S
O27         Ni33   1.938       .  S
O27          C48   1.274       .  A
O28         Ni51   1.909       .  S
O28          C37   1.269       .  A
O29         Ni33   1.905       .  S
O29         Ni51   1.903       .  S
O29         Ni45   1.910       .  S
O29          H52   0.966       .  S
C30          O47   1.274       .  A
C30          O39   1.277       .  A
C30         C885   1.489       .  S
O31         Ni50   1.931       .  S
O31          C37   1.273       .  A
O32         Ni50   1.906       .  S
O32          C34   1.269       .  A
Ni33         O36   1.927       .  S
Ni33         O38   1.910       .  S
C34          O44   1.273       .  A
C34         C929   1.484       .  S
O35         Ni51   1.929       .  S
O35          C41   1.279       .  A
O36          C41   1.279       .  A
C37         C863   1.482       .  S
O38          C40   1.270       .  A
O39         Ni50   1.935       .  S
C40          O46   1.274       .  A
C40         C951   1.486       .  S
C41         C918   1.491       .  S
H42          O43   0.967       .  S
O43         Ni51   1.919       .  S
O43         Ni45   1.910       .  S
O43         Ni50   1.912       .  S
O44         Ni45   1.935       .  S
Ni45         O49   1.900       .  S
Ni45         O47   1.916       .  S
O46         Ni51   1.930       .  S
C48          O49   1.266       .  A
C48        C1094   1.481       .  S
O53         Ni59   1.947       .  S
O53          C74   1.276       .  A
O54         Ni77   1.911       .  S
O54          C63   1.269       .  A
O55         Ni59   1.905       .  S
O55         Ni77   1.903       .  S
O55         Ni71   1.904       .  S
O55          H78   0.966       .  S
C56          O73   1.272       .  A
C56          O65   1.275       .  A
C56         C940   1.485   1_545  S
O57         Ni76   1.929       .  S
O57          C63   1.272       .  A
O58         Ni76   1.902       .  S
O58          C60   1.269       .  A
Ni59         O62   1.931       .  S
Ni59         O64   1.908       .  S
C60          O70   1.273       .  A
C60         C819   1.485       .  S
O61         Ni77   1.923       .  S
O61          C67   1.278       .  A
O62          C67   1.280       .  A
C63         C786   1.480       .  S
O64          C66   1.270       .  A
O65         Ni76   1.930       .  S
C66          O72   1.274       .  A
C66         C841   1.488       .  S
C67         C962   1.489       .  S
H68          O69   0.966       .  S
O69         Ni77   1.918       .  S
O69         Ni71   1.911       .  S
O69         Ni76   1.915       .  S
O70         Ni71   1.935       .  S
Ni71         O75   1.897       .  S
Ni71         O73   1.911       .  S
O72         Ni77   1.930       .  S
C74          O75   1.265       .  A
C74         C808   1.484       .  S
O79         Ni85   1.934       .  S
O79         C100   1.273       .  A
O80        Ni103   1.907       .  S
O80          C89   1.267       .  A
O81         Ni85   1.911       .  S
O81        Ni103   1.907       .  S
O81         Ni97   1.910       .  S
O81         H104   0.966       .  S
C82          O99   1.273       .  A
C82          O91   1.276       .  A
C82         C753   1.485       .  S
O83        Ni102   1.930       .  S
O83          C89   1.272       .  A
O84        Ni102   1.905       .  S
O84          C86   1.269       .  A
Ni85         O88   1.925       .  S
Ni85         O90   1.908       .  S
C86          O96   1.272       .  A
C86        C1072   1.481       .  S
O87        Ni103   1.921       .  S
O87          C93   1.276       .  A
O88          C93   1.277       .  A
C89         C720   1.480       .  S
O90          C92   1.270       .  A
O91        Ni102   1.933       .  S
C92          O98   1.272       .  A
C92        C1039   1.483       .  S
C93         C731   1.488       .  S
H94          O95   0.967       .  S
O95        Ni103   1.916       .  S
O95         Ni97   1.912       .  S
O95        Ni102   1.914       .  S
O96         Ni97   1.932       .  S
Ni97        O101   1.902       .  S
Ni97         O99   1.913       .  S
O98        Ni103   1.925       .  S
C100        O101   1.266       .  A
C100        C797   1.482       .  S
O105       Ni111   1.941       .  S
O105        C126   1.274       .  A
O106       Ni129   1.919       .  S
O106        C115   1.270       .  A
O107       Ni111   1.911       .  S
O107       Ni129   1.912       .  S
O107       Ni123   1.907       .  S
O107        H130   0.966       .  S
C108        O125   1.271       .  A
C108        O117   1.274       .  A
C108       C1028   1.486   1_455  S
O109       Ni128   1.925       .  S
O109        C115   1.271       .  A
O110       Ni128   1.903       .  S
O110        C112   1.269       .  A
Ni111       O114   1.926       .  S
Ni111       O116   1.907       .  S
C112        O122   1.276       .  A
C112        C764   1.487       .  S
O113       Ni129   1.920       .  S
O113        C119   1.276       .  A
O114        C119   1.278       .  A
C115        C665   1.487       .  S
O116        C118   1.270       .  A
O117       Ni128   1.927       .  S
C118        O124   1.274       .  A
C118        C742   1.487       .  S
C119       C1006   1.486       .  S
H120        O121   0.966       .  S
O121       Ni129   1.919       .  S
O121       Ni123   1.917       .  S
O121       Ni128   1.914       .  S
O122       Ni123   1.944       .  S
Ni123       O127   1.906       .  S
Ni123       O125   1.914       .  S
O124       Ni129   1.930       .  S
C126        O127   1.267       .  A
C126        C698   1.488       .  S
O131       Ni137   1.936       .  S
O131        C152   1.274       .  A
O132       Ni155   1.911       .  S
O132        C141   1.268       .  A
O133       Ni137   1.909       .  S
O133       Ni155   1.909       .  S
O133       Ni149   1.908       .  S
O133        H156   0.966       .  S
C134        O151   1.272       .  A
C134        O143   1.275       .  A
C134        C830   1.485   1_655  S
O135       Ni154   1.932       .  S
O135        C141   1.272       .  A
O136       Ni154   1.906       .  S
O136        C138   1.270       .  A
Ni137       O140   1.925       .  S
Ni137       O142   1.909       .  S
C138        O148   1.275       .  A
C138        C896   1.486       .  S
O139       Ni155   1.920       .  S
O139        C145   1.276       .  A
O140        C145   1.277       .  A
C141        C654   1.481       .  S
O142        C144   1.270       .  A
O143       Ni154   1.933       .  S
C144        O150   1.274       .  A
C144        C907   1.488       .  S
C145        C852   1.486       .  S
H146        O147   0.966       .  S
O147       Ni155   1.916       .  S
O147       Ni149   1.916       .  S
O147       Ni154   1.916       .  S
O148       Ni149   1.942       .  S
Ni149       O153   1.912       .  S
Ni149       O151   1.909       .  S
O150       Ni155   1.931       .  S
C152        O153   1.269       .  A
C152        C687   1.489       .  S
O157       Ni163   1.931       .  S
O157        C178   1.272       .  A
O158       Ni181   1.902       .  S
O158        C167   1.267       .  A
O159       Ni163   1.913       .  S
O159       Ni181   1.911       .  S
O159       Ni175   1.916       .  S
O159        H182   0.966       .  S
C160        O177   1.277       .  A
C160        O169   1.278       .  A
C160        C577   1.488       .  S
O161       Ni180   1.940       .  S
O161        C167   1.275       .  A
O162       Ni180   1.906       .  S
O162        C164   1.270       .  A
Ni163       O166   1.930       .  S
Ni163       O168   1.903       .  S
C164        O174   1.275       .  A
C164        C533   1.489       .  S
O165       Ni181   1.913       .  S
O165        C171   1.273       .  A
O166        C171   1.276       .  A
C167        C621   1.486       .  S
O168        C170   1.269       .  A
O169       Ni180   1.928       .  S
C170        O176   1.275       .  A
C170        C555   1.487       .  S
C171        C599   1.488       .  S
H172        O173   0.966       .  S
O173       Ni181   1.909       .  S
O173       Ni175   1.908       .  S
O173       Ni180   1.909       .  S
O174       Ni175   1.935       .  S
Ni175       O179   1.913       .  S
Ni175       O177   1.921       .  S
O176       Ni181   1.937       .  S
C178        O179   1.269       .  A
C178        C984   1.484       .  S
O183       Ni189   1.922       .  S
O183        C204   1.271       .  A
O184       Ni207   1.904       .  S
O184        C193   1.267       .  A
O185       Ni189   1.914       .  S
O185       Ni207   1.916       .  S
O185       Ni201   1.924       .  S
O185        H208   0.965       .  S
C186        O203   1.278       .  A
C186        O195   1.278       .  A
C186        C522   1.490       .  S
O187       Ni206   1.940       .  S
O187        C193   1.274       .  A
O188       Ni206   1.910       .  S
O188        C190   1.270       .  A
Ni189       O192   1.928       .  S
Ni189       O194   1.904       .  S
C190        O200   1.274       .  A
C190        C478   1.488       .  S
O191       Ni207   1.913       .  S
O191        C197   1.270       .  A
O192        C197   1.273       .  A
C193        C632   1.486       .  S
O194        C196   1.270       .  A
O195       Ni206   1.926       .  S
C196        O202   1.276       .  A
C196        C445   1.488       .  S
C197        C489   1.486       .  S
H198        O199   0.967       .  S
O199       Ni207   1.906       .  S
O199       Ni201   1.909       .  S
O199       Ni206   1.909       .  S
O200       Ni201   1.931       .  S
Ni201       O205   1.916       .  S
Ni201       O203   1.926       .  S
O202       Ni207   1.946       .  S
C204        O205   1.270       .  A
C204        C874   1.486       .  S
O209       Ni215   1.930       .  S
O209        C230   1.272       .  A
O210       Ni233   1.906       .  S
O210        C219   1.268       .  A
O211       Ni215   1.909       .  S
O211       Ni233   1.912       .  S
O211       Ni227   1.915       .  S
O211        H234   0.966       .  S
C212        O229   1.277       .  A
C212        O221   1.278       .  A
C212        C467   1.488       .  S
O213       Ni232   1.938       .  S
O213        C219   1.274       .  A
O214       Ni232   1.907       .  S
O214        C216   1.270       .  A
Ni215       O218   1.930       .  S
Ni215       O220   1.901       .  S
C216        O226   1.273       .  A
C216        C423   1.484       .  S
O217       Ni233   1.915       .  S
O217        C223   1.274       .  A
O218        C223   1.276       .  A
C219        C390   1.486       .  S
O220        C222   1.268       .  A
O221       Ni232   1.926       .  S
C222        O228   1.276       .  A
C222        C401   1.486       .  S
C223        C456   1.488   1_545  S
H224        O225   0.966       .  S
O225       Ni233   1.909       .  S
O225       Ni227   1.907       .  S
O225       Ni232   1.908       .  S
O226       Ni227   1.927       .  S
Ni227       O231   1.913       .  S
Ni227       O229   1.924       .  S
O228       Ni233   1.942       .  S
C230        O231   1.268       .  A
C230        C775   1.479       .  S
O235       Ni241   1.931       .  S
O235        C256   1.272       .  A
O236       Ni259   1.909       .  S
O236        C245   1.269       .  A
O237       Ni241   1.913       .  S
O237       Ni259   1.914       .  S
O237       Ni253   1.915       .  S
O237        H260   0.967       .  S
C238        O255   1.278       .  A
C238        O247   1.278       .  A
C238        C335   1.484       .  S
O239       Ni258   1.933       .  S
O239        C245   1.273       .  A
O240       Ni258   1.908       .  S
O240        C242   1.269       .  A
Ni241       O244   1.930       .  S
Ni241       O246   1.904       .  S
C242        O252   1.273       .  A
C242        C588   1.486       .  S
O243       Ni259   1.911       .  S
O243        C249   1.272       .  A
O244        C249   1.276       .  A
C245        C379   1.485       .  S
O246        C248   1.269       .  A
O247       Ni258   1.922       .  S
C248        O254   1.276       .  A
C248        C610   1.489       .  S
C249        C368   1.484       .  S
H250        O251   0.966       .  S
O251       Ni259   1.907       .  S
O251       Ni253   1.906       .  S
O251       Ni258   1.906       .  S
O252       Ni253   1.930       .  S
Ni253       O257   1.911       .  S
Ni253       O255   1.921       .  S
O254       Ni259   1.945       .  S
C256        O257   1.268       .  A
C256        C709   1.481       .  S
O261       Ni267   1.932       .  S
O261        C282   1.273       .  A
O262       Ni285   1.899       .  S
O262        C271   1.265       .  A
O263       Ni267   1.916       .  S
O263       Ni285   1.914       .  S
O263       Ni279   1.917       .  S
O263        H286   0.966       .  S
C264        O281   1.276       .  A
C264        O273   1.278       .  A
C264        C544   1.488       .  S
O265       Ni284   1.940       .  S
O265        C271   1.274       .  A
O266       Ni284   1.910       .  S
O266        C268   1.270       .  A
Ni267       O270   1.932       .  S
Ni267       O272   1.904       .  S
C268        O278   1.273       .  A
C268        C346   1.485       .  S
O269       Ni285   1.910       .  S
O269        C275   1.271       .  A
O270        C275   1.276       .  A
C271        C313   1.484       .  S
O272        C274   1.269       .  A
O273       Ni284   1.929       .  S
C274        O280   1.273       .  A
C274        C357   1.483       .  S
C275        C566   1.485   1_455  S
H276        O277   0.966       .  S
O277       Ni285   1.908       .  S
O277       Ni279   1.909       .  S
O277       Ni284   1.913       .  S
O278       Ni279   1.928       .  S
Ni279       O283   1.912       .  S
Ni279       O281   1.920       .  S
O280       Ni285   1.934       .  S
C282        O283   1.268       .  A
C282        C676   1.484       .  S
O287       Ni293   1.928       .  S
O287        C308   1.272       .  A
O288       Ni311   1.900       .  S
O288        C297   1.265       .  A
O289       Ni293   1.914       .  S
O289       Ni311   1.912       .  S
O289       Ni305   1.918       .  S
O289        H312   0.966       .  S
C290        O307   1.279       .  A
C290        O299   1.278       .  A
C290        C434   1.487       .  S
O291       Ni310   1.940       .  S
O291        C297   1.275       .  A
O292       Ni310   1.911       .  S
O292        C294   1.271       .  A
Ni293       O296   1.928       .  S
Ni293       O298   1.908       .  S
C294        O304   1.274       .  A
C294        C511   1.487       .  S
O295       Ni311   1.914       .  S
O295        C301   1.273       .  A
O296        C301   1.275       .  A
C297        C324   1.484       .  S
O298        C300   1.269       .  A
O299       Ni310   1.926       .  S
C300        O306   1.272       .  A
C300        C500   1.486       .  S
C301        C412   1.484       .  S
H302        O303   0.967       .  S
O303       Ni311   1.908       .  S
O303       Ni305   1.908       .  S
O303       Ni310   1.908       .  S
O304       Ni305   1.930       .  S
Ni305       O309   1.918       .  S
Ni305       O307   1.924       .  S
O306       Ni311   1.931       .  S
C308        O309   1.270       .  A
C308        C643   1.485       .  S
C313        C314   1.407       .  A
C313        C318   1.409       .  A
C314        C315   1.398       .  A
C314        H327   1.083       .  S
C315        C316   1.400       .  A
C315        H328   1.084       .  S
C316        C317   1.400       .  A
C316        C319   1.442       .  S
C317        C318   1.400       .  A
C317        H329   1.083       .  S
C318        H330   1.083       .  S
C319        C320   1.207   1_456  T
C320        C321   1.442       .  S
C321        C322   1.400       .  A
C321        C326   1.399       .  A
C322        C323   1.401       .  A
C322        H331   1.083       .  S
C323        C324   1.409       .  A
C323        H332   1.083       .  S
C324        C325   1.407       .  A
C325        C326   1.398       .  A
C325        H333   1.083       .  S
C326        H334   1.084       .  S
C335        C336   1.409       .  A
C335        C340   1.408       .  A
C336        C337   1.401       .  A
C336        H349   1.083       .  S
C337        C338   1.401       .  A
C337        H350   1.083       .  S
C338        C339   1.398       .  A
C338        C341   1.441       .  S
C339        C340   1.396       .  A
C339        H351   1.084       .  S
C340        H352   1.083       .  S
C341        C342   1.207       .  T
C342        C343   1.441       .  S
C343        C344   1.399       .  A
C343        C348   1.400       .  A
C344        C345   1.398       .  A
C344        H353   1.084       .  S
C345        C346   1.408       .  A
C345        H354   1.083       .  S
C346        C347   1.409       .  A
C347        C348   1.401       .  A
C347        H355   1.083       .  S
C348        H356   1.083       .  S
C357        C358   1.409       .  A
C357        C362   1.407       .  A
C358        C359   1.401       .  A
C358        H371   1.083       .  S
C359        C360   1.400       .  A
C359        H372   1.083       .  S
C360        C361   1.399       .  A
C360        C363   1.441       .  S
C361        C362   1.397       .  A
C361        H373   1.084       .  S
C362        H374   1.083       .  S
C363        C364   1.207       .  T
C364        C365   1.441       .  S
C365        C366   1.398       .  A
C365        C370   1.401       .  A
C366        C367   1.396       .  A
C366        H375   1.084       .  S
C367        C368   1.408   1_545  A
C367        H376   1.083   1_545  S
C368        C369   1.409       .  A
C369        C370   1.403   1_565  A
C369        H377   1.083       .  S
C370        H378   1.083       .  S
C379        C380   1.408       .  A
C379        C384   1.408       .  A
C380        C381   1.401       .  A
C380        H393   1.083       .  S
C381        C382   1.401       .  A
C381        H394   1.083       .  S
C382        C383   1.399       .  A
C382        C385   1.444       .  S
C383        C384   1.399       .  A
C383        H395   1.084       .  S
C384        H396   1.083       .  S
C385        C386   1.209   1_556  T
C386        C387   1.444   1_565  S
C387        C388   1.400       .  A
C387        C392   1.400       .  A
C388        C389   1.400       .  A
C388        H397   1.084       .  S
C389        C390   1.409       .  A
C389        H398   1.083       .  S
C390        C391   1.408       .  A
C391        C392   1.401       .  A
C391        H399   1.083       .  S
C392        H400   1.083   1_545  S
C401        C402   1.408       .  A
C401        C406   1.410       .  A
C402        C403   1.402       .  A
C402        H415   1.083       .  S
C403        C404   1.401       .  A
C403        H416   1.083       .  S
C404        C405   1.399       .  A
C404        C407   1.443       .  S
C405        C406   1.398       .  A
C405        H417   1.084       .  S
C406        H418   1.083       .  S
C407        C408   1.208       .  T
C408        C409   1.443       .  S
C409        C410   1.399       .  A
C409        C414   1.402       .  A
C410        C411   1.397       .  A
C410        H419   1.084       .  S
C411        C412   1.407   1_455  A
C411        H420   1.083       .  S
C412        C413   1.408   1_655  A
C413        C414   1.403       .  A
C413        H421   1.083   1_455  S
C414        H422   1.083       .  S
C423        C424   1.408       .  A
C423        C428   1.409       .  A
C424        C425   1.397       .  A
C424        H437   1.083       .  S
C425        C426   1.399       .  A
C425        H438   1.084       .  S
C426        C427   1.401       .  A
C426        C429   1.442       .  S
C427        C428   1.401       .  A
C427        H439   1.083       .  S
C428        H440   1.083       .  S
C429        C430   1.207       .  T
C430        C431   1.442       .  S
C431        C432   1.400       .  A
C431        C436   1.399       .  A
C432        C433   1.402       .  A
C432        H441   1.083       .  S
C433        C434   1.409       .  A
C433        H442   1.083       .  S
C434        C435   1.409       .  A
C435        C436   1.398       .  A
C435        H443   1.083       .  S
C436        H444   1.084       .  S
C445        C446   1.409       .  A
C445        C450   1.409       .  A
C446        C447   1.398       .  A
C446        H459   1.083       .  S
C447        C448   1.399   1_655  A
C447        H460   1.084   1_655  S
C448        C449   1.402   1_455  A
C448        C451   1.445       .  S
C449        C450   1.403       .  A
C449        H461   1.083       .  S
C450        H462   1.083       .  S
C451        C452   1.209       .  T
C452        C453   1.445       .  S
C453        C454   1.402       .  A
C453        C458   1.398       .  A
C454        C455   1.404       .  A
C454        H463   1.083       .  S
C455        C456   1.409       .  A
C455        H464   1.083       .  S
C456        C457   1.409       .  A
C457        C458   1.396       .  A
C457        H465   1.083       .  S
C458        H466   1.084       .  S
C467        C468   1.410       .  A
C467        C472   1.408       .  A
C468        C469   1.403       .  A
C468        H481   1.083       .  S
C469        C470   1.401       .  A
C469        H482   1.083       .  S
C470        C471   1.398       .  A
C470        C473   1.444       .  S
C471        C472   1.397       .  A
C471        H483   1.084       .  S
C472        H484   1.083       .  S
C473        C474   1.209       .  T
C474        C475   1.444       .  S
C475        C476   1.400       .  A
C475        C480   1.401       .  A
C476        C477   1.399       .  A
C476        H485   1.084       .  S
C477        C478   1.409       .  A
C477        H486   1.083       .  S
C478        C479   1.409       .  A
C479        C480   1.402       .  A
C479        H487   1.083       .  S
C480        H488   1.083       .  S
C489        C490   1.409       .  A
C489        C494   1.408       .  A
C490        C491   1.405       .  A
C490        H503   1.083       .  S
C491        C492   1.402       .  A
C491        H504   1.083       .  S
C492        C493   1.397       .  A
C492        C495   1.442       .  S
C493        C494   1.394       .  A
C493        H505   1.084       .  S
C494        H506   1.083       .  S
C495        C496   1.208       .  T
C496        C497   1.443       .  S
C497        C498   1.400       .  A
C497        C502   1.400       .  A
C498        C499   1.398   1_565  A
C498        H507   1.084       .  S
C499        C500   1.408       .  A
C499        H508   1.083       .  S
C500        C501   1.410       .  A
C501        C502   1.401   1_545  A
C501        H509   1.083       .  S
C502        H510   1.083       .  S
C511        C512   1.408       .  A
C511        C516   1.409       .  A
C512        C513   1.399       .  A
C512        H525   1.083       .  S
C513        C514   1.400       .  A
C513        H526   1.084       .  S
C514        C515   1.401       .  A
C514        C517   1.446       .  S
C515        C516   1.402       .  A
C515        H527   1.083       .  S
C516        H528   1.083       .  S
C517        C518   1.210       .  T
C518        C519   1.446       .  S
C519        C520   1.402       .  A
C519        C524   1.399       .  A
C520        C521   1.404       .  A
C520        H529   1.083       .  S
C521        C522   1.410       .  A
C521        H530   1.083       .  S
C522        C523   1.409       .  A
C523        C524   1.397       .  A
C523        H531   1.083       .  S
C524        H532   1.084       .  S
C533        C534   1.409       .  A
C533        C538   1.409       .  A
C534        C535   1.404       .  A
C534        H547   1.083       .  S
C535        C536   1.402       .  A
C535        H548   1.083       .  S
C536        C537   1.399       .  A
C536        C539   1.446       .  S
C537        C538   1.398       .  A
C537        H549   1.084       .  S
C538        H550   1.083       .  S
C539        C540   1.210       .  T
C540        C541   1.446       .  S
C541        C542   1.400       .  A
C541        C546   1.401       .  A
C542        C543   1.399       .  A
C542        H551   1.084       .  S
C543        C544   1.409       .  A
C543        H552   1.083       .  S
C544        C545   1.409       .  A
C545        C546   1.403       .  A
C545        H553   1.083       .  S
C546        H554   1.083       .  S
C555        C556   1.409       .  A
C555        C560   1.409       .  A
C556        C557   1.402       .  A
C556        H569   1.083       .  S
C557        C558   1.401       .  A
C557        H570   1.083       .  S
C558        C559   1.399       .  A
C558        C561   1.443   1_565  S
C559        C560   1.397       .  A
C559        H571   1.084       .  S
C560        H572   1.083       .  S
C561        C562   1.208       .  T
C562        C563   1.443       .  S
C563        C564   1.398       .  A
C563        C568   1.402       .  A
C564        C565   1.396       .  A
C564        H573   1.084       .  S
C565        C566   1.407       .  A
C565        H574   1.083       .  S
C566        C567   1.409       .  A
C567        C568   1.403       .  A
C567        H575   1.083       .  S
C568        H576   1.083       .  S
C577        C578   1.409       .  A
C577        C582   1.409       .  A
C578        C579   1.402       .  A
C578        H591   1.083       .  S
C579        C580   1.401       .  A
C579        H592   1.083       .  S
C580        C581   1.399       .  A
C580        C583   1.444       .  S
C581        C582   1.398       .  A
C581        H593   1.084       .  S
C582        H594   1.083       .  S
C583        C584   1.208       .  T
C584        C585   1.444       .  S
C585        C586   1.399       .  A
C585        C590   1.401       .  A
C586        C587   1.397       .  A
C586        H595   1.084       .  S
C587        C588   1.408       .  A
C587        H596   1.083       .  S
C588        C589   1.409       .  A
C589        C590   1.403       .  A
C589        H597   1.083       .  S
C590        H598   1.083       .  S
C599        C600   1.408       .  A
C599        C604   1.410       .  A
C600        C601   1.397       .  A
C600        H613   1.083       .  S
C601        C602   1.399       .  A
C601        H614   1.084       .  S
C602        C603   1.402       .  A
C602        C605   1.445       .  S
C603        C604   1.404       .  A
C603        H615   1.083       .  S
C604        H616   1.083       .  S
C605        C606   1.210       .  T
C606        C607   1.446       .  S
C607        C608   1.402   1_655  A
C607        C612   1.399       .  A
C608        C609   1.404       .  A
C608        H617   1.083   1_455  S
C609        C610   1.409       .  A
C609        H618   1.083       .  S
C610        C611   1.409       .  A
C611        C612   1.397   1_455  A
C611        H619   1.083       .  S
C612        H620   1.084       .  S
C621        C622   1.409       .  A
C621        C626   1.408       .  A
C622        C623   1.402       .  A
C622        H635   1.083       .  S
C623        C624   1.401       .  A
C623        H636   1.083       .  S
C624        C625   1.400       .  A
C624        C627   1.444       .  S
C625        C626   1.399       .  A
C625        H637   1.084       .  S
C626        H638   1.083       .  S
C627        C628   1.209   1_556  T
C628        C629   1.444       .  S
C629        C630   1.400       .  A
C629        C634   1.401       .  A
C630        C631   1.399       .  A
C630        H639   1.084       .  S
C631        C632   1.408       .  A
C631        H640   1.083       .  S
C632        C633   1.409       .  A
C633        C634   1.401       .  A
C633        H641   1.083       .  S
C634        H642   1.083       .  S
C643        C644   1.409       .  A
C643        C648   1.407       .  A
C644        C645   1.407       .  A
C644        H657   1.083       .  S
C645        C646   1.403       .  A
C645        H658   1.083       .  S
C646        C647   1.398       .  A
C646        C649   1.445       .  S
C647        C648   1.394       .  A
C647        H659   1.084       .  S
C648        H660   1.083       .  S
C649        C650   1.209       .  T
C650        C651   1.445       .  S
C651        C652   1.399       .  A
C651        C656   1.403       .  A
C652        C653   1.395       .  A
C652        H661   1.084       .  S
C653        C654   1.405       .  A
C653        H662   1.083       .  S
C654        C655   1.408       .  A
C655        C656   1.405       .  A
C655        H663   1.083       .  S
C656        H664   1.083       .  S
C665        C666   1.408       .  A
C665        C670   1.409       .  A
C666        C667   1.393       .  A
C666        H679   1.083       .  S
C667        C668   1.397       .  A
C667        H680   1.084       .  S
C668        C669   1.404       .  A
C668        C671   1.445       .  S
C669        C670   1.408       .  A
C669        H681   1.083       .  S
C670        H682   1.083       .  S
C671        C672   1.209       .  T
C672        C673   1.445       .  S
C673        C674   1.403       .  A
C673        C678   1.399       .  A
C674        C675   1.405       .  A
C674        H683   1.083       .  S
C675        C676   1.408       .  A
C675        H684   1.083       .  S
C676        C677   1.407       .  A
C677        C678   1.396       .  A
C677        H685   1.083       .  S
C678        H686   1.084       .  S
C687        C688   1.409       .  A
C687        C692   1.409       .  A
C688        C689   1.399       .  A
C688        H701   1.083       .  S
C689        C690   1.400       .  A
C689        H702   1.084       .  S
C690        C691   1.402       .  A
C690        C693   1.447       .  S
C691        C692   1.403       .  A
C691        H703   1.083       .  S
C692        H704   1.083       .  S
C693        C694   1.210   1_655  T
C694        C695   1.447       .  S
C695        C696   1.401       .  A
C695        C700   1.401       .  A
C696        C697   1.402       .  A
C696        H705   1.083       .  S
C697        C698   1.409       .  A
C697        H706   1.083       .  S
C698        C699   1.409       .  A
C699        C700   1.401       .  A
C699        H707   1.083       .  S
C700        H708   1.084       .  S
C709        C710   1.406       .  A
C709        C714   1.408       .  A
C710        C711   1.394       .  A
C710        H723   1.083       .  S
C711        C712   1.398       .  A
C711        H724   1.084       .  S
C712        C713   1.402       .  A
C712        C715   1.442       .  S
C713        C714   1.404       .  A
C713        H725   1.083       .  S
C714        H726   1.083       .  S
C715        C716   1.207       .  T
C716        C717   1.441       .  S
C717        C718   1.402       .  A
C717        C722   1.398       .  A
C718        C719   1.404       .  A
C718        H727   1.083       .  S
C719        C720   1.408       .  A
C719        H728   1.083       .  S
C720        C721   1.406       .  A
C721        C722   1.393       .  A
C721        H729   1.083       .  S
C722        H730   1.084       .  S
C731        C732   1.408       .  A
C731        C736   1.410       .  A
C732        C733   1.397       .  A
C732        H745   1.083       .  S
C733        C734   1.399       .  A
C733        H746   1.084       .  S
C734        C735   1.401       .  A
C734        C737   1.444       .  S
C735        C736   1.403       .  A
C735        H747   1.083       .  S
C736        H748   1.083       .  S
C737        C738   1.208       .  T
C738        C739   1.444       .  S
C739        C740   1.401       .  A
C739        C744   1.399       .  A
C740        C741   1.403       .  A
C740        H749   1.083       .  S
C741        C742   1.409       .  A
C741        H750   1.083       .  S
C742        C743   1.409       .  A
C743        C744   1.397       .  A
C743        H751   1.083       .  S
C744        H752   1.084       .  S
C753        C754   1.408   1_565  A
C753        C758   1.408   1_565  A
C754        C755   1.398       .  A
C754        H767   1.083   1_545  S
C755        C756   1.399       .  A
C755        H768   1.084       .  S
C756        C757   1.402       .  A
C756        C759   1.445       .  S
C757        C758   1.403       .  A
C757        H769   1.083       .  S
C758        H770   1.083   1_545  S
C759        C760   1.209       .  T
C760        C761   1.445       .  S
C761        C762   1.402       .  A
C761        C766   1.399       .  A
C762        C763   1.403       .  A
C762        H771   1.083       .  S
C763        C764   1.409       .  A
C763        H772   1.083       .  S
C764        C765   1.409       .  A
C765        C766   1.397       .  A
C765        H773   1.083       .  S
C766        H774   1.084       .  S
C775        C776   1.407       .  A
C775        C780   1.406       .  A
C776        C777   1.405       .  A
C776        H789   1.083       .  S
C777        C778   1.403       .  A
C777        H790   1.083       .  S
C778        C779   1.398       .  A
C778        C781   1.442       .  S
C779        C780   1.394       .  A
C779        H791   1.084       .  S
C780        H792   1.083       .  S
C781        C782   1.207       .  T
C782        C783   1.442       .  S
C783        C784   1.399       .  A
C783        C788   1.402       .  A
C784        C785   1.395       .  A
C784        H793   1.084       .  S
C785        C786   1.407       .  A
C785        H794   1.083       .  S
C786        C787   1.407       .  A
C787        C788   1.403       .  A
C787        H795   1.083       .  S
C788        H796   1.083       .  S
C797        C798   1.408       .  A
C797        C802   1.408       .  A
C798        C799   1.398       .  A
C798        H811   1.083       .  S
C799        C800   1.399       .  A
C799        H812   1.084       .  S
C800        C801   1.400       .  A
C800        C803   1.440       .  S
C801        C802   1.399       .  A
C801        H813   1.083       .  S
C802        H814   1.083       .  S
C803        C804   1.206       .  T
C804        C805   1.441   1_565  S
C805        C806   1.399       .  A
C805        C810   1.400       .  A
C806        C807   1.400       .  A
C806        H815   1.084   1_545  S
C807        C808   1.410       .  A
C807        H816   1.083       .  S
C808        C809   1.407       .  A
C809        C810   1.399       .  A
C809        H817   1.083       .  S
C810        H818   1.084       .  S
C819        C820   1.409       .  A
C819        C824   1.408       .  A
C820        C821   1.402       .  A
C820        H833   1.083       .  S
C821        C822   1.401       .  A
C821        H834   1.083       .  S
C822        C823   1.398       .  A
C822        C825   1.441       .  S
C823        C824   1.395       .  A
C823        H835   1.084       .  S
C824        H836   1.083       .  S
C825        C826   1.207       .  T
C826        C827   1.441       .  S
C827        C828   1.399       .  A
C827        C832   1.401       .  A
C828        C829   1.396       .  A
C828        H837   1.084       .  S
C829        C830   1.408       .  A
C829        H838   1.083       .  S
C830        C831   1.408       .  A
C831        C832   1.402       .  A
C831        H839   1.083       .  S
C832        H840   1.083       .  S
C841        C842   1.409       .  A
C841        C846   1.409       .  A
C842        C843   1.397       .  A
C842        H855   1.083       .  S
C843        C844   1.399       .  A
C843        H856   1.084       .  S
C844        C845   1.401       .  A
C844        C847   1.443       .  S
C845        C846   1.403       .  A
C845        H857   1.083       .  S
C846        H858   1.083       .  S
C847        C848   1.208       .  T
C848        C849   1.443       .  S
C849        C850   1.401       .  A
C849        C854   1.398       .  A
C850        C851   1.403       .  A
C850        H859   1.083       .  S
C851        C852   1.410       .  A
C851        H860   1.083       .  S
C852        C853   1.408       .  A
C853        C854   1.396       .  A
C853        H861   1.083       .  S
C854        H862   1.084       .  S
C863        C864   1.408       .  A
C863        C868   1.407       .  A
C864        C865   1.404       .  A
C864        H877   1.083       .  S
C865        C866   1.402       .  A
C865        H878   1.083       .  S
C866        C867   1.398       .  A
C866        C869   1.442       .  S
C867        C868   1.394       .  A
C867        H879   1.084       .  S
C868        H880   1.083       .  S
C869        C870   1.207       .  T
C870        C871   1.442       .  S
C871        C872   1.396       .  A
C871        C876   1.403       .  A
C872        C873   1.391       .  A
C872        H881   1.084       .  S
C873        C874   1.408       .  A
C873        H882   1.083       .  S
C874        C875   1.409       .  A
C875        C876   1.407       .  A
C875        H883   1.083       .  S
C876        H884   1.083       .  S
C885        C886   1.409       .  A
C885        C890   1.409       .  A
C886        C887   1.404       .  A
C886        H899   1.083       .  S
C887        C888   1.401       .  A
C887        H900   1.083       .  S
C888        C889   1.399       .  A
C888        C891   1.445       .  S
C889        C890   1.398       .  A
C889        H901   1.084       .  S
C890        H902   1.083       .  S
C891        C892   1.209       .  T
C892        C893   1.444       .  S
C893        C894   1.399       .  A
C893        C898   1.401   1_565  A
C894        C895   1.398   1_565  A
C894        H903   1.084       .  S
C895        C896   1.408       .  A
C895        H904   1.083       .  S
C896        C897   1.409       .  A
C897        C898   1.402       .  A
C897        H905   1.083       .  S
C898        H906   1.083   1_545  S
C907        C908   1.409       .  A
C907        C912   1.409       .  A
C908        C909   1.403       .  A
C908        H921   1.083       .  S
C909        C910   1.402       .  A
C909        H922   1.083       .  S
C910        C911   1.400       .  A
C910        C913   1.447       .  S
C911        C912   1.399       .  A
C911        H923   1.084       .  S
C912        H924   1.083       .  S
C913        C914   1.211       .  T
C914        C915   1.448       .  S
C915        C916   1.400       .  A
C915        C920   1.402       .  A
C916        C917   1.400       .  A
C916        H925   1.084       .  S
C917        C918   1.410       .  A
C917        H926   1.083       .  S
C918        C919   1.409       .  A
C919        C920   1.404       .  A
C919        H927   1.083       .  S
C920        H928   1.083       .  S
C929        C930   1.407       .  A
C929        C934   1.409       .  A
C930        C931   1.397       .  A
C930        H943   1.083       .  S
C931        C932   1.399   1_655  A
C931        H944   1.084   1_655  S
C932        C933   1.401   1_455  A
C932        C935   1.442       .  S
C933        C934   1.401       .  A
C933        H945   1.083       .  S
C934        H946   1.083       .  S
C935        C936   1.207       .  T
C936        C937   1.442       .  S
C937        C938   1.401       .  A
C937        C942   1.399       .  A
C938        C939   1.402       .  A
C938        H947   1.083       .  S
C939        C940   1.409       .  A
C939        H948   1.083       .  S
C940        C941   1.408       .  A
C941        C942   1.397       .  A
C941        H949   1.083       .  S
C942        H950   1.084       .  S
C951        C952   1.408       .  A
C951        C956   1.409       .  A
C952        C953   1.399       .  A
C952        H965   1.083       .  S
C953        C954   1.400       .  A
C953        H966   1.084       .  S
C954        C955   1.402       .  A
C954        C957   1.446       .  S
C955        C956   1.403       .  A
C955        H967   1.083       .  S
C956        H968   1.083       .  S
C957        C958   1.210       .  T
C958        C959   1.446       .  S
C959        C960   1.401       .  A
C959        C964   1.400       .  A
C960        C961   1.403       .  A
C960        H969   1.083       .  S
C961        C962   1.410       .  A
C961        H970   1.083       .  S
C962        C963   1.408       .  A
C963        C964   1.399       .  A
C963        H971   1.083       .  S
C964        H972   1.084       .  S
C973        C974   1.407       .  A
C973        C978   1.410       .  A
C974        C975   1.393       .  A
C974        H987   1.083       .  S
C975        C976   1.397       .  A
C975        H988   1.084       .  S
C976        C977   1.403       .  A
C976        C979   1.442       .  S
C977        C978   1.406       .  A
C977        H989   1.083       .  S
C978        H990   1.083       .  S
C979        C980   1.208       .  T
C980        C981   1.442       .  S
C981        C982   1.402       .  A
C981        C986   1.399       .  A
C982        C983   1.404       .  A
C982        H991   1.083       .  S
C983        C984   1.408       .  A
C983        H992   1.083       .  S
C984        C985   1.407       .  A
C985        C986   1.395       .  A
C985        H993   1.083       .  S
C986        H994   1.084       .  S
C995        C996   1.407       .  A
C995       C1000   1.408       .  A
C996        C997   1.397       .  A
C996       H1009   1.083       .  S
C997        C998   1.399       .  A
C997       H1010   1.084       .  S
C998        C999   1.400       .  A
C998       C1001   1.441       .  S
C999       C1000   1.400       .  A
C999       H1011   1.083       .  S
C1000      H1012   1.083       .  S
C1001      C1002   1.207       .  T
C1002      C1003   1.441       .  S
C1003      C1004   1.400       .  A
C1003      C1008   1.399       .  A
C1004      C1005   1.401       .  A
C1004      H1013   1.083       .  S
C1005      C1006   1.409       .  A
C1005      H1014   1.083       .  S
C1006      C1007   1.409       .  A
C1007      C1008   1.397       .  A
C1007      H1015   1.083       .  S
C1008      H1016   1.084       .  S
C1017      C1018   1.408       .  A
C1017      C1022   1.409       .  A
C1018      C1019   1.398       .  A
C1018      H1031   1.083       .  S
C1019      C1020   1.400       .  A
C1019      H1032   1.084   1_565  S
C1020      C1021   1.401       .  A
C1020      C1023   1.443   1_565  S
C1021      C1022   1.402       .  A
C1021      H1033   1.083       .  S
C1022      H1034   1.083       .  S
C1023      C1024   1.208       .  T
C1024      C1025   1.443       .  S
C1025      C1026   1.403       .  A
C1025      C1030   1.398       .  A
C1026      C1027   1.404       .  A
C1026      H1035   1.083       .  S
C1027      C1028   1.409       .  A
C1027      H1036   1.083       .  S
C1028      C1029   1.408       .  A
C1029      C1030   1.395       .  A
C1029      H1037   1.083       .  S
C1030      H1038   1.084       .  S
C1039      C1040   1.408       .  A
C1039      C1044   1.409       .  A
C1040      C1041   1.398       .  A
C1040      H1053   1.083       .  S
C1041      C1042   1.399       .  A
C1041      H1054   1.084       .  S
C1042      C1043   1.399       .  A
C1042      C1045   1.440       .  S
C1043      C1044   1.400       .  A
C1043      H1055   1.083       .  S
C1044      H1056   1.083       .  S
C1045      C1046   1.206       .  T
C1046      C1047   1.440       .  S
C1047      C1048   1.401       .  A
C1047      C1052   1.397       .  A
C1048      C1049   1.402       .  A
C1048      H1057   1.083       .  S
C1049      C1050   1.409       .  A
C1049      H1058   1.083       .  S
C1050      C1051   1.409       .  A
C1051      C1052   1.395       .  A
C1051      H1059   1.083       .  S
C1052      H1060   1.084       .  S
C1061      C1062   1.409       .  A
C1061      C1066   1.406       .  A
C1062      C1063   1.401       .  A
C1062      H1075   1.083       .  S
C1063      C1064   1.400       .  A
C1063      H1076   1.083       .  S
C1064      C1065   1.398       .  A
C1064      C1067   1.438       .  S
C1065      C1066   1.395       .  A
C1065      H1077   1.084       .  S
C1066      H1078   1.083       .  S
C1067      C1068   1.205       .  T
C1068      C1069   1.439       .  S
C1069      C1070   1.399   1_655  A
C1069      C1074   1.399   1_655  A
C1070      C1071   1.397       .  A
C1070      H1079   1.084   1_455  S
C1071      C1072   1.407       .  A
C1071      H1080   1.083       .  S
C1072      C1073   1.408       .  A
C1073      C1074   1.399       .  A
C1073      H1081   1.083       .  S
C1074      H1082   1.083       .  S
C1083      C1084   1.408       .  A
C1083      C1088   1.408       .  A
C1084      C1085   1.402       .  A
C1084      H1097   1.083       .  S
C1085      C1086   1.401       .  A
C1085      H1098   1.083       .  S
C1086      C1087   1.398       .  A
C1086      C1089   1.440       .  S
C1087      C1088   1.395       .  A
C1087      H1099   1.084       .  S
C1088      H1100   1.083       .  S
C1089      C1090   1.206       .  T
C1090      C1091   1.440       .  S
C1091      C1092   1.400       .  A
C1091      C1096   1.399       .  A
C1092      C1093   1.398       .  A
C1092      H1101   1.084       .  S
C1093      C1094   1.407       .  A
C1093      H1102   1.083       .  S
C1094      C1095   1.408       .  A
C1095      C1096   1.398       .  A
C1095      H1103   1.083       .  S
C1096      H1104   1.083       .  S
