geometry optimzed in LAMMPS
_audit_creation_date              2020-12-01 
_audit_creation_method            'lammps2cif' 
_symmetry_space_group_name_H-M    'P1' 
_symmetry_Int_Tables_number       1 
_symmetry_cell_setting            triclinic 
loop_ 
_symmetry_equiv_pos_as_xyz 
  x,y,z 
_cell_length_a                    39.31995585 
_cell_length_b                    39.36534695269492 
_cell_length_c                    72.08527331797951 
_cell_angle_alpha                 90.0683350940105 
_cell_angle_beta                  89.96802870102205 
_cell_angle_gamma                 120.11327510837825 
loop_ 
_atom_site_label 
_atom_site_type_symbol 
_atom_site_fract_x 
_atom_site_fract_y 
_atom_site_fract_z 
_atom_site_charge 
Zr1        Zr  0.72361651  0.84002427  0.40400475     2.17500
O2          O  0.74773058  0.88432151  0.43056921    -0.51100
O3          O  0.78025733  0.83294072  0.39956826    -0.74300
O4          O  0.72236226  0.80354940  0.43143947    -0.81100
O5          O  0.76109211  0.92161437  0.36776095    -0.82800
O6          O  0.66371172  0.74683979  0.43316200    -0.78400
O7          O  0.77535121  0.90545076  0.39584119    -0.90100
O8          O  0.76424787  0.78890125  0.37618626    -0.76000
O9          O  0.69233774  0.77187388  0.39683903    -0.85500
O10         O  0.72994434  0.83648544  0.37130331    -0.85200
O11         O  0.65732060  0.81260780  0.41460881    -0.72000
O12         O  0.69329264  0.87357379  0.39033302    -0.84100
Zr13       Zr  0.59819426  0.77248327  0.36035417     2.26400
Zr14       Zr  0.62526950  0.74436240  0.40618252     2.06300
Zr15       Zr  0.69737290  0.86742047  0.35745754     2.10000
Zr16       Zr  0.69858395  0.76861494  0.36434819     1.78800
O17         O  0.68447903  0.92121029  0.35284124    -0.92900
O18         O  0.69522876  0.70687144  0.37231117    -0.40700
O19         O  0.66514066  0.79883886  0.35051068    -0.77300
O20         O  0.63058555  0.73943991  0.37323491    -0.96000
O21         O  0.59274651  0.77647706  0.39308264    -0.89300
O22         O  0.63042944  0.84093228  0.36719373    -0.92200
C23         C  0.78822332  0.81258447  0.38845166     1.01600
C24         C  0.78322633  0.92903225  0.38211064     1.14500
C25         C  0.69825167  0.77091733  0.43936859     1.05300
O26         O  0.62191743  0.68120675  0.40953203    -0.94300
O27         O  0.56244254  0.68894406  0.39659210    -0.90100
O28         O  0.55007924  0.70471726  0.36814338    -0.83200
C29         C  0.54163768  0.68085582  0.38178873     1.11900
O30         O  0.65372395  0.89588974  0.42381495    -0.96300
Zr31       Zr  0.62654206  0.84489191  0.40014281     1.88900
O32         O  0.54651277  0.78963274  0.36494485    -0.73000
O33         O  0.58260498  0.73313849  0.43276751    -0.52200
O34         O  0.59049920  0.82671692  0.42933999    -0.96900
O35         O  0.62896386  0.90585758  0.39135052    -0.54100
O36         O  0.56088822  0.82575134  0.39120229    -0.73500
C37         C  0.53846432  0.80785204  0.37751248     0.98900
O38         O  0.55636191  0.73487934  0.33434158    -0.62300
O39         O  0.74456142  0.89065476  0.33205548    -0.57100
O40         O  0.61297802  0.79347899  0.32805205    -0.93800
O41         O  0.67101406  0.85063883  0.32605565    -0.92200
O42         O  0.73998073  0.79334410  0.33687172    -0.92600
O43         O  0.67612491  0.72177328  0.33881303    -0.91300
C44         C  0.64035984  0.82180710  0.31866858     1.17700
H45         H  0.75706170  0.84975063  0.36743236     0.33700
H46         H  0.61756447  0.71222697  0.36941317     0.44500
H47         H  0.61808495  0.85333198  0.36069968     0.38000
H48         H  0.65702589  0.81539885  0.42792069     0.34500
H49         H  0.70755812  0.71141839  0.38472023     0.26300
H50         H  0.59326914  0.75912199  0.43878432     0.32200
H51         H  0.56471443  0.80349394  0.42634372     0.38200
H52         H  0.75769467  0.78230702  0.33762888     0.32600
H53         H  0.75252681  0.91866484  0.33055155     0.31500
H54         H  0.71063189  0.94526586  0.35356175     0.33200
H55         H  0.61400109  0.90006359  0.37961416     0.32100
H56         H  0.65868636  0.72800005  0.33145976     0.36100
H57         H  0.55973132  0.71169660  0.33293192     0.28900
H58         H  0.77021941  0.88227105  0.43537627     0.33100
H59         H  0.67993506  0.89936202  0.42659013     0.36000
H60         H  0.76817224  0.89079819  0.33691538     0.28600
H61         H  0.52890377  0.72427057  0.33857177     0.41400
H62         H  0.64959025  0.68736094  0.40897425     0.31500
H63         H  0.66698761  0.68824610  0.37456215     0.39100
H64         H  0.65662286  0.92370739  0.38768849     0.31000
H65         H  0.55725817  0.72780769  0.42735165     0.31000
H66         H  0.72707325  0.87172593  0.44016858     0.31300
Zr67       Zr  0.86032046  0.72688881  0.59221472     2.17500
O68         O  0.90655388  0.76045869  0.56698692    -0.51100
O69         O  0.84844419  0.78036048  0.59909772    -0.74300
O70         O  0.82732889  0.72577754  0.56335961    -0.81100
O71         O  0.94410603  0.75629601  0.62738894    -0.82800
O72         O  0.77085897  0.66660916  0.56198403    -0.78400
O73         O  0.92750920  0.77457640  0.60045933    -0.90100
O74         O  0.80218518  0.76045872  0.62171173    -0.76000
O75         O  0.79130208  0.69047524  0.59765348    -0.85500
O76         O  0.85287577  0.72968684  0.62492857    -0.85200
O77         O  0.83912607  0.66221520  0.58045772    -0.72000
O78         O  0.89482562  0.69824847  0.60648963    -0.84100
Zr79       Zr  0.79628668  0.59877528  0.63363010     2.26400
Zr80       Zr  0.77020927  0.62509216  0.58715292     2.06300
Zr81       Zr  0.88570438  0.69928518  0.63923261     2.10000
Zr82       Zr  0.78383571  0.69362776  0.63012667     1.78800
O83         O  0.94000649  0.69057420  0.64920890    -0.92900
O84         O  0.72212454  0.68674160  0.61906599    -0.40700
O85         O  0.81671641  0.66354948  0.64458302    -0.77300
O86         O  0.76032308  0.62732440  0.61989542    -0.96000
O87         O  0.80443762  0.59570127  0.60104752    -0.89300
O88         O  0.86531587  0.63453929  0.62838032    -0.92200
C89         C  0.82656485  0.78623929  0.61033003     1.01600
C90         C  0.95201978  0.77905620  0.61334235     1.14500
C91         C  0.79450002  0.70121441  0.55573289     1.05300
O92         O  0.70416740  0.60948086  0.57830589    -0.94300
O93         O  0.71764259  0.55946998  0.59564370    -0.90100
O94         O  0.73100855  0.54860418  0.62495603    -0.83200
C95         C  0.70927574  0.53895628  0.61055403     1.11900
O96         O  0.92007933  0.66474743  0.57020503    -0.96300
Zr97       Zr  0.87336952  0.63380280  0.59547446     1.88900
O98         O  0.81959129  0.55222061  0.62931022    -0.73000
O99         O  0.77354624  0.58920518  0.56034270    -0.52200
O100        O  0.85571908  0.59109536  0.56843057    -0.96900
O101        O  0.94035537  0.65069307  0.60327397    -0.54100
O102        O  0.86590726  0.57316934  0.60668801    -0.73500
C103        C  0.84409679  0.54841108  0.61895269     0.98900
O104        O  0.76056572  0.55069789  0.65794228    -0.62300
O105        O  0.90283783  0.75175450  0.66175098    -0.57100
O106        O  0.80866925  0.61206455  0.66663936    -0.93800
O107        O  0.86571602  0.66986032  0.66999934    -0.92200
O108        O  0.79719190  0.73027204  0.65902189    -0.92600
O109        O  0.73335843  0.66299886  0.65388453    -0.91300
C110        C  0.83574009  0.63903094  0.67664761     1.17700
H111        H  0.86460765  0.75637022  0.62932832     0.33700
H112        H  0.73255446  0.61234596  0.62288860     0.44500
H113        H  0.87874736  0.62353514  0.63510469     0.38000
H114        H  0.84343696  0.66324214  0.56721979     0.34500
H115        H  0.72787869  0.69790304  0.60639005     0.26300
H116        H  0.76714686  0.56321137  0.56529903     0.32200
H117        H  0.87424266  0.58097192  0.56857401     0.38200
H118        H  0.82602671  0.74811932  0.65913117     0.32600
H119        H  0.92662475  0.75497941  0.66807285     0.31500
H120        H  0.95226816  0.70923784  0.65962796     0.33200
H121        H  0.94363140  0.62952328  0.59769444     0.32100
H122        H  0.72993177  0.63648399  0.65548483     0.36100
H123        H  0.73489423  0.54950072  0.65924483     0.28900
H124        H  0.90067628  0.78072316  0.56249600     0.33100
H125        H  0.92921163  0.69310160  0.57147585     0.36000
H126        H  0.91230107  0.77608437  0.65439945     0.28600
H127        H  0.75423449  0.52484657  0.65279437     0.41400
H128        H  0.69830171  0.62622523  0.58639446     0.31500
H129        H  0.70462482  0.65817129  0.61717789     0.39100
H130        H  0.94003099  0.64636803  0.61680992     0.31000
H131        H  0.75037369  0.58384538  0.55276400     0.31000
H132        H  0.89841359  0.74102787  0.55679039     0.31300
Zr133      Zr  0.14655777  0.86692092  0.40674505     2.17500
O134        O  0.10192229  0.84671342  0.43313323    -0.51100
O135        O  0.16072777  0.93432039  0.40376886    -0.74300
O136        O  0.18262417  0.89749918  0.43496848    -0.81100
O137        O  0.06306045  0.82467819  0.37252895    -0.82800
O138        O  0.23882942  0.89439541  0.43427870    -0.78400
O139        O  0.08125433  0.85592415  0.40038810    -0.90100
O140        O  0.20127557  0.96021597  0.37888814    -0.76000
O141        O  0.21453197  0.90071582  0.39897048    -0.85500
O142        O  0.14967418  0.87847762  0.37417367    -0.85200
O143        O  0.17037039  0.82382778  0.41568279    -0.72000
O144        O  0.11011937  0.80363297  0.39230585    -0.84100
Zr145      Zr  0.20566580  0.80569356  0.36024720     2.26400
Zr146      Zr  0.23840230  0.85749187  0.40680746     2.06300
Zr147      Zr  0.11486908  0.81551162  0.35959100     2.10000
Zr148      Zr  0.21764721  0.91234471  0.36663855     1.78800
O149        O  0.05437939  0.75366763  0.35414413    -0.92900
O150        O  0.28056179  0.96633648  0.37722576    -0.40700
O151        O  0.18305621  0.84970098  0.35150788    -0.77300
O152        O  0.24321853  0.86994416  0.37412375    -0.96000
O153        O  0.20255444  0.79392360  0.39273948    -0.89300
O154        O  0.13757046  0.77124178  0.36778370    -0.92200
C155        C  0.18048863  0.96214978  0.39219694     1.01600
C156        C  0.05666633  0.83960680  0.38705704     1.14500
C157        C  0.21588311  0.90510927  0.44175100     1.05300
O158        O  0.30438609  0.91453125  0.40691850    -0.94300
O159        O  0.28446095  0.83693086  0.39608211    -0.90100
O160        O  0.27245845  0.82142387  0.36558722    -0.83200
C161        C  0.29283374  0.82746739  0.38030934     1.11900
O162        O  0.08707171  0.73849462  0.42572644    -0.96300
Zr163      Zr  0.13478544  0.76118671  0.40055311     1.88900
O164        O  0.18731167  0.73699646  0.36361112    -0.73000
O165        O  0.25157248  0.82998248  0.43427219    -0.52200
O166        O  0.15708698  0.74233306  0.42812978    -0.96900
O167        O  0.07001178  0.70597241  0.39310554    -0.54100
O168        O  0.14828093  0.71152780  0.38891543    -0.73500
C169        C  0.16783268  0.70925625  0.37523266     0.98900
O170        O  0.24322157  0.79512005  0.33622301    -0.62300
O171        O  0.09875629  0.84998790  0.33622256    -0.57100
O172        O  0.18339706  0.80383587  0.32857184    -0.93800
O173        O  0.12297695  0.79788256  0.32811260    -0.92200
O174        O  0.19902757  0.93593151  0.33943357    -0.92600
O175        O  0.26445144  0.93422725  0.34103858    -0.91300
C176        C  0.15277725  0.79929216  0.32006901     1.17700
H177        H  0.13763827  0.89388844  0.37097379     0.33700
H178        H  0.27025729  0.88276455  0.37028831     0.44500
H179        H  0.12349229  0.74682750  0.36094621     0.38000
H180        H  0.16817309  0.82008055  0.42898833     0.34500
H181        H  0.30016391  0.95849978  0.37402803     0.26300
H182        H  0.25048022  0.80561829  0.42988471     0.32200
H183        H  0.18225675  0.74429449  0.42442383     0.38200
H184        H  0.21032135  0.96444972  0.34156204     0.32600
H185        H  0.07045170  0.83239774  0.33361437     0.31500
H186        H  0.04384775  0.75776636  0.34241131     0.33200
H187        H  0.07350263  0.69499497  0.38136808     0.32100
H188        H  0.27030677  0.91274753  0.33920786     0.36100
H189        H  0.22431603  0.77133934  0.32926423     0.28900
H190        H  0.10492313  0.87139872  0.43825875     0.33100
H191        H  0.09097457  0.76284265  0.43171272     0.36000
H192        H  0.10002417  0.87278023  0.34270150     0.28600
H193        H  0.25221101  0.81716423  0.32734323     0.41400
H194        H  0.30062554  0.93689305  0.41011776     0.31500
H195        H  0.28641338  0.98838627  0.36875072     0.39100
H196        H  0.05420687  0.71816109  0.38958885     0.31000
H197        H  0.27973983  0.84812331  0.43698055     0.31000
H198        H  0.11349863  0.83729342  0.44259007     0.31300
Zr199      Zr  0.27785359  0.11551908  0.59220297     2.17500
O200        O  0.24833114  0.12910080  0.56557784    -0.51100
O201        O  0.22500322  0.04901715  0.59694213    -0.74300
O202        O  0.28234198  0.08214617  0.56454763    -0.81100
O203        O  0.24384518  0.16793803  0.62583254    -0.82800
O204        O  0.34170390  0.08535769  0.56402131    -0.78400
O205        O  0.22601297  0.13003257  0.59978991    -0.90100
O206        O  0.24442588  0.02478280  0.62063816    -0.76000
O207        O  0.31306990  0.08292257  0.59981046    -0.85500
O208        O  0.27277411  0.10691700  0.62505897    -0.85200
O209        O  0.34380276  0.15757374  0.58147760    -0.72000
O210        O  0.30615199  0.17981243  0.60545969    -0.84100
Zr211      Zr  0.40369366  0.18220441  0.63582957     2.26400
Zr212      Zr  0.37940326  0.12532147  0.59028575     2.06300
Zr213      Zr  0.30258352  0.17124601  0.63843466     2.10000
Zr214      Zr  0.30823962  0.07445399  0.63233456     1.78800
O215        O  0.31276287  0.23601232  0.64599066    -0.92900
O216        O  0.31786745  0.01997272  0.62369196    -0.40700
O217        O  0.33779833  0.13840501  0.64595212    -0.77300
O218        O  0.37545625  0.11657199  0.62331740    -0.96000
O219        O  0.40877230  0.19021329  0.60305292    -0.89300
O220        O  0.36855842  0.21505740  0.62841354    -0.92200
C221        C  0.21961279  0.02163030  0.60820710     1.01600
C222        C  0.22056479  0.15042515  0.61217375     1.14500
C223        C  0.30739310  0.07406005  0.55731874     1.05300
O224        O  0.38698943  0.06783680  0.58746363    -0.94300
O225        O  0.44404399  0.13798116  0.59970915    -0.90100
O226        O  0.45439976  0.16696242  0.62787547    -0.83200
C227        C  0.46455512  0.15254413  0.61445620     1.11900
O228        O  0.34501018  0.23845803  0.56909005    -0.96300
Zr229      Zr  0.37217494  0.22136092  0.59542807     1.88900
O230        O  0.45279792  0.25175738  0.63174996    -0.73000
O231        O  0.41954911  0.15901597  0.56332220    -0.52200
O232        O  0.41444364  0.24331826  0.56816756    -0.96900
O233        O  0.35860463  0.27419319  0.60192132    -0.54100
O234        O  0.43500013  0.27260151  0.60631990    -0.73500
C235        C  0.45879155  0.27807710  0.61961995     0.98900
O236        O  0.44818042  0.19270077  0.66160314    -0.62300
O237        O  0.24622756  0.13871829  0.65914139    -0.57100
O238        O  0.38715557  0.18570870  0.66808360    -0.93800
O239        O  0.32762017  0.18125606  0.67027584    -0.92200
O240        O  0.26857933  0.05469141  0.66049284    -0.92600
O241        O  0.33478246  0.05333860  0.65741461    -0.91300
C242        C  0.35905664  0.18478318  0.67762238     1.17700
H243        H  0.24574770  0.09178103  0.62898786     0.33700
H244        H  0.38989366  0.10405940  0.62723434     0.44500
H245        H  0.37948382  0.24009310  0.63463684     0.38000
H246        H  0.34401784  0.16010058  0.56813565     0.34500
H247        H  0.29314103  0.99605575  0.62728538     0.26300
H248        H  0.44554122  0.17831097  0.56847787     0.32200
H249        H  0.43787471  0.24167993  0.57176218     0.38200
H250        H  0.24199175  0.03412885  0.65654912     0.32600
H251        H  0.25191222  0.12174412  0.66714321     0.31500
H252        H  0.29032466  0.23077796  0.65409964     0.33200
H253        H  0.37441793  0.28761833  0.61305334     0.32100
H254        H  0.35460047  0.07806866  0.66342365     0.36100
H255        H  0.44737858  0.16738107  0.66344217     0.28900
H256        H  0.22802474  0.10300687  0.56094074     0.33100
H257        H  0.31905384  0.21477726  0.56691666     0.36000
H258        H  0.24834442  0.15974000  0.66744561     0.28600
H259        H  0.47498805  0.21097873  0.65696508     0.41400
H260        H  0.40341367  0.07283792  0.57626312     0.31500
H261        H  0.31757668  0.01963569  0.60995867     0.39100
H262        H  0.33103823  0.26073471  0.60634067     0.31000
H263        H  0.42404077  0.13913366  0.55713663     0.31000
H264        H  0.26895566  0.13947397  0.55588271     0.31300
Zr265      Zr  0.11636077  0.26086196  0.40428941     2.17500
O266        O  0.12966664  0.23195707  0.43124584    -0.51100
O267        O  0.04935553  0.20814199  0.39963306    -0.74300
O268        O  0.08627022  0.26927007  0.43208934    -0.81100
O269        O  0.16575530  0.22322933  0.37143222    -0.82800
O270        O  0.09540513  0.33091666  0.43325494    -0.78400
O271        O  0.13127388  0.20885751  0.39844749    -0.90100
O272        O  0.02244252  0.22527105  0.37620767    -0.76000
O273        O  0.08506344  0.29757408  0.39743676    -0.85500
O274        O  0.10359878  0.25305902  0.37178226    -0.85200
O275        O  0.16170942  0.32706672  0.41370046    -0.72000
O276        O  0.17890124  0.28578532  0.38953794    -0.84100
Zr277      Zr  0.18130694  0.38331430  0.35883914     2.26400
Zr278      Zr  0.13072682  0.36415797  0.40548769     2.06300
Zr279      Zr  0.16611344  0.27972549  0.35696807     2.10000
Zr280      Zr  0.07229196  0.29004080  0.36520551     1.78800
O281        O  0.22509251  0.28116648  0.34552972    -0.92900
O282        O  0.02000912  0.29875773  0.37829609    -0.40700
O283        O  0.13479392  0.31688235  0.34998990    -0.77300
O284        O  0.11757997  0.35750252  0.37293272    -0.96000
O285        O  0.19373570  0.38998631  0.39129192    -0.89300
O286        O  0.21249875  0.34599650  0.36549040    -0.92200
C287        C  0.02083338  0.20118883  0.38868111     1.01600
C288        C  0.15065952  0.20207703  0.38604684     1.14500
C289        C  0.08195899  0.29630682  0.43984691     1.05300
O290        O  0.07301283  0.37154826  0.40757809    -0.94300
O291        O  0.14715427  0.42973155  0.39589350    -0.90100
O292        O  0.17616641  0.44017799  0.36769463    -0.83200
C293        C  0.16302231  0.45094761  0.38147469     1.11900
O294        O  0.23953923  0.32583486  0.42536174    -0.96300
Zr295      Zr  0.22357372  0.35182495  0.39817490     1.88900
O296        O  0.25132326  0.43153051  0.36137124    -0.73000
O297        O  0.16572383  0.40774672  0.43134139    -0.52200
O298        O  0.25466078  0.39901700  0.42326173    -0.96900
O299        O  0.27173871  0.33211204  0.39079054    -0.54100
O300        O  0.27544141  0.41106536  0.38472690    -0.73500
C301        C  0.27932189  0.43527216  0.37194143     0.98900
O302        O  0.16870795  0.42054322  0.33550316    -0.62300
O303        O  0.12595794  0.22472861  0.33637231    -0.57100
O304        O  0.19488341  0.37130697  0.32727401    -0.93800
O305        O  0.17781375  0.30701975  0.32569413    -0.92200
O306        O  0.04650436  0.25110082  0.33707391    -0.92600
O307        O  0.05064410  0.31908457  0.34150406    -0.91300
C308        C  0.18835405  0.34053956  0.31819367     1.17700
H309        H  0.08753142  0.22582582  0.36835835     0.33700
H310        H  0.10606704  0.37308402  0.36934548     0.44500
H311        H  0.23648608  0.35539857  0.35854020     0.38000
H312        H  0.16577616  0.32808427  0.42697321     0.34500
H313        H  0.02800786  0.32651739  0.37583519     0.26300
H314        H  0.14592863  0.41244166  0.43749899     0.32200
H315        H  0.28308532  0.40820874  0.42208437     0.38200
H316        H  0.05707795  0.23297413  0.33717346     0.32600
H317        H  0.14520543  0.22157282  0.32879725     0.31500
H318        H  0.23840499  0.27925648  0.35679215     0.33200
H319        H  0.27805752  0.33859843  0.37751562     0.32100
H320        H  0.07522407  0.33905027  0.33544761     0.36100
H321        H  0.19384656  0.43634549  0.32881323     0.28900
H322        H  0.10357196  0.21332319  0.43651849     0.33100
H323        H  0.21821893  0.29807123  0.42605683     0.36000
H324        H  0.11364659  0.20114933  0.34439146     0.28600
H325        H  0.15059639  0.40106872  0.32635780     0.41400
H326        H  0.07792868  0.38847261  0.41857732     0.31500
H327        H  0.99706116  0.28337472  0.37011124     0.39100
H328        H  0.25683277  0.30303783  0.39116231     0.31000
H329        H  0.17043222  0.39138371  0.44022392     0.31000
H330        H  0.14209898  0.25344996  0.44046938     0.31300
Zr331      Zr  0.88326445  0.14496845  0.59248316     2.17500
O332        O  0.86433130  0.10052256  0.56603706    -0.51100
O333        O  0.94876539  0.15461157  0.59668114    -0.74300
O334        O  0.91434929  0.18107494  0.56439711    -0.81100
O335        O  0.83263628  0.05856886  0.62467222    -0.82800
O336        O  0.91873358  0.24076584  0.56675391    -0.78400
O337        O  0.87009622  0.07914407  0.59855482    -0.90100
O338        O  0.97305082  0.19236092  0.62244337    -0.76000
O339        O  0.92020974  0.21188056  0.60197049    -0.85500
O340        O  0.89005003  0.14378450  0.62526385    -0.85200
O341        O  0.84484249  0.17370474  0.58291925    -0.72000
O342        O  0.81774801  0.11088126  0.60477474    -0.84100
Zr343      Zr  0.82332941  0.20697693  0.63885747     2.26400
Zr344      Zr  0.88095791  0.24017800  0.59351438     2.06300
Zr345      Zr  0.82507618  0.11138365  0.63770385     2.10000
Zr346      Zr  0.92669318  0.21042335  0.63459790     1.78800
O347        O  0.75799591  0.05697723  0.64106038    -0.92900
O348        O  0.98411935  0.27455849  0.62865292    -0.40700
O349        O  0.86214896  0.17818070  0.64776604    -0.77300
O350        O  0.88913440  0.24085204  0.62645224    -0.96000
O351        O  0.81614883  0.20797215  0.60610062    -0.89300
O352        O  0.78623523  0.13992313  0.62928708    -0.92200
C353        C  0.97549167  0.17220850  0.60901598     1.01600
C354        C  0.85039804  0.05332679  0.61094482     1.14500
C355        C  0.92524667  0.21573344  0.55842479     1.05300
O356        O  0.93791636  0.30522865  0.58880895    -0.94300
O357        O  0.87070420  0.29206530  0.60538969    -0.90100
O358        O  0.83470571  0.27200545  0.63185735    -0.83200
C359        C  0.85291023  0.29737792  0.61906703     1.11900
O360        O  0.76005066  0.10284455  0.56798777    -0.96300
Zr361      Zr  0.78057407  0.14144135  0.59641964     1.88900
O362        O  0.75565375  0.19255861  0.63540023    -0.73000
O363        O  0.84545709  0.24837767  0.56779849    -0.52200
O364        O  0.76328541  0.17205711  0.57163121    -0.96900
O365        O  0.72415499  0.07564847  0.60012877    -0.54100
O366        O  0.73163867  0.15349973  0.60992523    -0.73500
C367        C  0.72822412  0.17214252  0.62369578     0.98900
O368        O  0.84207432  0.25466452  0.66398871    -0.62300
O369        O  0.84633773  0.07893131  0.65978872    -0.57100
O370        O  0.80194441  0.17656433  0.66930707    -0.93800
O371        O  0.81400637  0.12583870  0.66924613    -0.92200
O372        O  0.94332743  0.18305114  0.66102011    -0.92600
O373        O  0.94929806  0.25312979  0.66168937    -0.91300
C374        C  0.80584943  0.14981608  0.67752330     1.17700
H375        H  0.90335175  0.12975321  0.62876250     0.33700
H376        H  0.90286826  0.26749684  0.63092964     0.44500
H377        H  0.76098402  0.12641184  0.63535567     0.38000
H378        H  0.84243877  0.17293104  0.56953711     0.34500
H379        H  0.00616227  0.26947652  0.62696618     0.26300
H380        H  0.85112610  0.27581075  0.56884730     0.32200
H381        H  0.76201642  0.19403182  0.57763851     0.38200
H382        H  0.91914038  0.17041743  0.66865727     0.32600
H383        H  0.86297116  0.09938411  0.66891924     0.31500
H384        H  0.74838835  0.06247982  0.65274297     0.33200
H385        H  0.71207814  0.07631809  0.61207650     0.32100
H386        H  0.92602879  0.25460311  0.66577186     0.36100
H387        H  0.81751756  0.24769136  0.67076881     0.28900
H388        H  0.88937363  0.10436443  0.56089170     0.33100
H389        H  0.77922527  0.09375917  0.56636710     0.36000
H390        H  0.82229021  0.06061383  0.66672688     0.28600
H391        H  0.85788273  0.24872875  0.67268735     0.41400
H392        H  0.94731689  0.31555943  0.60144285     0.31500
H393        H  0.97964507  0.28191059  0.61614926     0.39100
H394        H  0.73566898  0.05875688  0.60256112     0.31000
H395        H  0.85951935  0.24817424  0.55644288     0.31000
H396        H  0.85425249  0.11155662  0.55662191     0.31300
Zr397      Zr  0.15838354  0.26273687  0.09205356     2.17500
O398        O  0.11596510  0.23746947  0.06487988    -0.51100
O399        O  0.16683318  0.20697323  0.09814992    -0.74300
O400        O  0.19627309  0.26486787  0.06515396    -0.81100
O401        O  0.07787880  0.22281981  0.12733041    -0.82800
O402        O  0.24901375  0.32651826  0.06304281    -0.78400
O403        O  0.09255448  0.21010154  0.09858069    -0.90100
O404        O  0.21156844  0.22466360  0.12141312    -0.76000
O405        O  0.22713748  0.29944984  0.09799124    -0.85500
O406        O  0.16475105  0.25690130  0.12460860    -0.85200
O407        O  0.17980739  0.32868595  0.08196425    -0.72000
O408        O  0.12137448  0.28808897  0.10696677    -0.84100
Zr409      Zr  0.21802487  0.38611403  0.13650379     2.26400
Zr410      Zr  0.24849808  0.36582410  0.08937711     2.06300
Zr411      Zr  0.13030003  0.28443725  0.13954708     2.10000
Zr412      Zr  0.23359364  0.29276905  0.13012661     1.78800
O413        O  0.07638732  0.29481485  0.14839375    -0.92900
O414        O  0.29122772  0.29497132  0.11626158    -0.40700
O415        O  0.19918182  0.32039341  0.14569332    -0.77300
O416        O  0.25553314  0.35994446  0.12198906    -0.96000
O417        O  0.21171843  0.39179828  0.10390623    -0.89300
O418        O  0.14931419  0.34994507  0.13044439    -0.92200
C419        C  0.18694043  0.19955440  0.10975822     1.01600
C420        C  0.06958118  0.20174892  0.11257724     1.14500
C421        C  0.22792198  0.29086741  0.05723313     1.05300
O422        O  0.31516950  0.37943919  0.08351856    -0.94300
O423        O  0.29816786  0.43165934  0.10029171    -0.90100
O424        O  0.27978501  0.44272257  0.12841966    -0.83200
C425        C  0.30356766  0.45329055  0.11471959     1.11900
O426        O  0.09975340  0.32325416  0.07117325    -0.96300
Zr427      Zr  0.14313088  0.35376444  0.09764005     1.88900
O428        O  0.19561127  0.43407497  0.13350007    -0.73000
O429        O  0.25195641  0.40611608  0.06302035    -0.52200
O430        O  0.14967692  0.39532995  0.07128764    -0.96900
O431        O  0.07743354  0.33612413  0.10830080    -0.54100
O432        O  0.15522399  0.41651528  0.10854479    -0.73500
C433        C  0.17408696  0.43983953  0.12187554     0.98900
O434        O  0.26770881  0.42520210  0.15964418    -0.62300
O435        O  0.10178044  0.22923417  0.16104864    -0.57100
O436        O  0.19536565  0.37332109  0.16869144    -0.93800
O437        O  0.15419436  0.30761080  0.17080764    -0.92200
O438        O  0.22502121  0.26014044  0.15980670    -0.92600
O439        O  0.29054960  0.32548460  0.15046975    -0.91300
C440        C  0.17594481  0.34158592  0.17809133     1.17700
H441        H  0.15267130  0.23001978  0.12876152     0.33700
H442        H  0.28270569  0.37554285  0.12540185     0.44500
H443        H  0.13552125  0.36028520  0.13738285     0.38000
H444        H  0.17620760  0.32901332  0.06872474     0.34500
H445        H  0.28106656  0.27655230  0.10563162     0.26300
H446        H  0.23869040  0.38731317  0.05274889     0.32200
H447        H  0.17504690  0.41986194  0.07317665     0.38200
H448        H  0.19654288  0.24783828  0.16239425     0.32600
H449        H  0.12453768  0.22868669  0.16657350     0.31500
H450        H  0.07434849  0.29135848  0.16202733     0.33200
H451        H  0.06603872  0.34396013  0.09806546     0.32100
H452        H  0.28580234  0.34387392  0.15790594     0.36100
H453        H  0.25649298  0.43793158  0.16742617     0.28900
H454        H  0.11980714  0.21609065  0.06003031     0.33100
H455        H  0.08524851  0.29484908  0.07409357     0.36000
H456        H  0.09061993  0.23729823  0.17131622     0.28600
H457        H  0.26984432  0.40624965  0.16789011     0.41400
H458        H  0.32411012  0.39729803  0.07268266     0.31500
H459        H  0.30592056  0.32129231  0.11049992     0.39100
H460        H  0.08165612  0.35493318  0.11838372     0.31000
H461        H  0.23384646  0.41581483  0.06622743     0.31000
H462        H  0.12803986  0.25856007  0.05547196     0.31300
Zr463      Zr  0.27474812  0.13821547  0.90196873     2.17500
O464        O  0.24376254  0.09309529  0.92782498    -0.51100
O465        O  0.21920395  0.14661936  0.89508016    -0.74300
O466        O  0.27486608  0.17338249  0.93012646    -0.81100
O467        O  0.24233742  0.05624923  0.86582958    -0.82800
O468        O  0.33504570  0.22834120  0.93203421    -0.78400
O469        O  0.22612430  0.07131245  0.89372587    -0.90100
O470        O  0.23537688  0.18905206  0.87092633    -0.76000
O471        O  0.30781149  0.20658883  0.89545245    -0.85500
O472        O  0.27096537  0.14356871  0.86921014    -0.85200
O473        O  0.34067967  0.16296680  0.91294192    -0.72000
O474        O  0.30575605  0.10508725  0.88820009    -0.84100
Zr475      Zr  0.40218336  0.20557459  0.85916772     2.26400
Zr476      Zr  0.37414195  0.23147053  0.90542270     2.06300
Zr477      Zr  0.30327117  0.11240283  0.85530694     2.10000
Zr478      Zr  0.30367759  0.21198128  0.86286913     1.78800
O479        O  0.31366720  0.05753133  0.84892898    -0.92900
O480        O  0.30662876  0.27199165  0.87383963    -0.40700
O481        O  0.33616120  0.18104449  0.84876767    -0.77300
O482        O  0.37105548  0.23931965  0.87251907    -0.96000
O483        O  0.40611296  0.19956902  0.89180106    -0.89300
O484        O  0.36957470  0.13697218  0.86531499    -0.92200
C485        C  0.21101852  0.16531055  0.88299186     1.01600
C486        C  0.21992130  0.04785424  0.88007501     1.14500
C487        C  0.30023433  0.20538835  0.93819976     1.05300
O488        O  0.37958571  0.29572431  0.90809408    -0.94300
O489        O  0.44152788  0.28130175  0.89895065    -0.90100
O490        O  0.45236669  0.27019241  0.86922001    -0.83200
C491        C  0.46252035  0.29043539  0.88420562     1.11900
O492        O  0.34501951  0.08158346  0.92238764    -0.96300
Zr493      Zr  0.37217094  0.13132269  0.89815647     1.88900
O494        O  0.45387217  0.18901982  0.86305020    -0.73000
O495        O  0.41314521  0.24038147  0.93318949    -0.52200
O496        O  0.41036969  0.14737539  0.92666994    -0.96900
O497        O  0.36721584  0.07084172  0.88652003    -0.54100
O498        O  0.43838855  0.15106988  0.88878744    -0.73500
C499        C  0.46145796  0.17021409  0.87536370     0.98900
O500        O  0.44387620  0.24633870  0.83383952    -0.62300
O501        O  0.25392889  0.09352779  0.83101030    -0.57100
O502        O  0.38895060  0.18539824  0.82673425    -0.93800
O503        O  0.33072946  0.12867717  0.82414694    -0.92200
O504        O  0.26712577  0.19341341  0.83382103    -0.92600
O505        O  0.33134995  0.26303655  0.83925391    -0.91300
C506        C  0.36183694  0.15742931  0.81706252     1.17700
H507        H  0.24419539  0.13037456  0.86488605     0.33700
H508        H  0.38528068  0.26677599  0.86919776     0.44500
H509        H  0.38170696  0.12438211  0.85877370     0.38000
H510        H  0.34045636  0.15943549  0.92624361     0.34500
H511        H  0.28511171  0.27293841  0.86717510     0.26300
H512        H  0.41674462  0.26484838  0.93892178     0.32200
H513        H  0.42779211  0.17623770  0.92624809     0.38200
H514        H  0.25469408  0.20989111  0.83317184     0.32600
H515        H  0.24652921  0.06624838  0.82775280     0.31500
H516        H  0.30397469  0.04944145  0.83609626     0.33200
H517        H  0.33941707  0.05035218  0.88846095     0.32100
H518        H  0.34827901  0.25646920  0.83166951     0.36100
H519        H  0.44178430  0.27038269  0.83394335     0.28900
H520        H  0.22245211  0.09767201  0.93211099     0.33100
H521        H  0.31927472  0.07906183  0.92538431     0.36000
H522        H  0.23035034  0.09129596  0.83712313     0.28600
H523        H  0.47126636  0.25510538  0.83762735     0.41400
H524        H  0.38399121  0.30612396  0.89528586     0.31500
H525        H  0.29762467  0.26660706  0.88689182     0.39100
H526        H  0.38228889  0.06443362  0.89545273     0.31000
H527        H  0.39544788  0.21926737  0.94179285     0.31000
H528        H  0.26343729  0.10320340  0.93794613     0.31300
Zr529      Zr  0.11432691  0.83314584  0.09486267     2.17500
O530        O  0.12579645  0.87468252  0.06778508    -0.51100
O531        O  0.04780897  0.81861182  0.10132802    -0.74300
O532        O  0.08313051  0.79536109  0.06696799    -0.81100
O533        O  0.16262369  0.91915281  0.12713792    -0.82800
O534        O  0.08792489  0.74011908  0.06657417    -0.78400
O535        O  0.12837589  0.90007334  0.10011177    -0.90100
O536        O  0.02697639  0.78161833  0.12756513    -0.76000
O537        O  0.08285909  0.76550554  0.10326659    -0.85500
O538        O  0.10735871  0.83179512  0.12777014    -0.85200
O539        O  0.15718576  0.81011199  0.08437380    -0.72000
O540        O  0.17915923  0.87137109  0.10748654    -0.84100
Zr541      Zr  0.18503544  0.77862332  0.13897718     2.26400
Zr542      Zr  0.12631127  0.74262312  0.09383937     2.06300
Zr543      Zr  0.17204933  0.86782218  0.14048000     2.10000
Zr544      Zr  0.07608419  0.76418247  0.13598762     1.78800
O545        O  0.23832844  0.92180485  0.14652195    -0.92900
O546        O  0.01825429  0.70180081  0.12790252    -0.40700
O547        O  0.14065977  0.80010225  0.14845200    -0.77300
O548        O  0.11882632  0.73963697  0.12688115    -0.96000
O549        O  0.19158788  0.78020926  0.10606106    -0.89300
O550        O  0.21663391  0.84642921  0.13081529    -0.92200
C551        C  0.02267767  0.80079441  0.11428170     1.01600
C552        C  0.14658446  0.92535823  0.11300723     1.14500
C553        C  0.07674075  0.76297950  0.05955324     1.05300
O554        O  0.06957607  0.67664106  0.09188994    -0.94300
O555        O  0.14349361  0.69424544  0.10465314    -0.90100
O556        O  0.17034003  0.71188604  0.13337804    -0.83200
C557        C  0.15773881  0.68820550  0.11956741     1.11900
O558        O  0.23687255  0.89321004  0.07200701    -0.96300
Zr559      Zr  0.22137915  0.84762776  0.09768979     1.88900
O560        O  0.25600515  0.80407773  0.13463446    -0.73000
O561        O  0.15888623  0.73267565  0.06736070    -0.52200
O562        O  0.24164274  0.82769673  0.06974792    -0.96900
O563        O  0.27580778  0.91359883  0.10389638    -0.54100
O564        O  0.27379912  0.83737982  0.10748716    -0.73500
C565        C  0.28122264  0.82293169  0.12174771     0.98900
O566        O  0.20277158  0.74491950  0.16206958    -0.62300
O567        O  0.14908861  0.89695368  0.16365395    -0.57100
O568        O  0.18175947  0.79659604  0.17134405    -0.93800
O569        O  0.17465702  0.85009728  0.17264493    -0.92200
O570        O  0.06219498  0.78505079  0.16544801    -0.92600
O571        O  0.05518648  0.71559092  0.16070042    -0.91300
C572        C  0.17765808  0.82243490  0.18049811     1.17700
H573        H  0.09257277  0.84406425  0.13176137     0.33700
H574        H  0.10688969  0.71283775  0.13098210     0.44500
H575        H  0.24179567  0.86129624  0.13677576     0.38000
H576        H  0.15943127  0.81194681  0.07099871     0.34500
H577        H  0.00949160  0.70646902  0.11578038     0.26300
H578        H  0.13931814  0.70659597  0.06239891     0.32200
H579        H  0.23773850  0.80141325  0.07268331     0.38200
H580        H  0.07924812  0.81397741  0.16552211     0.32600
H581        H  0.16786413  0.92556466  0.16329864     0.31500
H582        H  0.23458576  0.94194192  0.15293080     0.30800
H583        H  0.28914738  0.91109871  0.11501746     0.32100
H584        H  0.07448574  0.70644151  0.16057842     0.36100
H585        H  0.22481107  0.76567429  0.16931644     0.28900
H586        H  0.09943781  0.86695339  0.06278210     0.33100
H587        H  0.21177461  0.89230110  0.06922234     0.36000
H588        H  0.12418640  0.89381308  0.15870275     0.28600
H589        H  0.18039687  0.73239082  0.17083843     0.41400
H590        H  0.04658464  0.68051881  0.09147139     0.31500
H591        H  0.02859009  0.68406292  0.12503266     0.39100
H592        H  0.26313737  0.92844738  0.10825681     0.31000
H593        H  0.16045698  0.75155160  0.05785900     0.31000
H594        H  0.13802540  0.86581186  0.05837469     0.31300
Zr595      Zr  0.88843931  0.72007645  0.90063291     2.17500
O596        O  0.87532537  0.75506440  0.92494124    -0.51100
O597        O  0.95495463  0.77086224  0.89442160    -0.74300
O598        O  0.91917466  0.71874787  0.92993890    -0.81100
O599        O  0.83474302  0.75013249  0.86615967    -0.82800
O600        O  0.91502074  0.65913260  0.93177700    -0.78400
O601        O  0.87381134  0.77129159  0.89181779    -0.90100
O602        O  0.98047203  0.75171721  0.87115150    -0.76000
O603        O  0.92118871  0.68419108  0.89435945    -0.85500
O604        O  0.89715232  0.72229697  0.86783375    -0.85200
O605        O  0.84627965  0.65531798  0.91260921    -0.72000
O606        O  0.82419149  0.69082415  0.88729776    -0.84100
Zr607      Zr  0.82215752  0.59036581  0.85948574     2.26400
Zr608      Zr  0.87843725  0.61884235  0.90525733     2.06300
Zr609      Zr  0.83288418  0.69131214  0.85449776     2.10000
Zr610      Zr  0.92964707  0.68630613  0.86170022     1.78800
O611        O  0.76980927  0.68373106  0.84525901    -0.92900
O612        O  0.98627282  0.67991666  0.86992122    -0.40700
O613        O  0.86555559  0.65537145  0.84819706    -0.77300
O614        O  0.88778612  0.62008269  0.87227780    -0.96000
O615        O  0.81375599  0.58867198  0.89226814    -0.89300
O616        O  0.78918314  0.62620658  0.86552433    -0.92200
C617        C  0.98271969  0.77671880  0.88325150     1.01600
C618        C  0.85225610  0.77475143  0.87939096     1.14500
C619        C  0.92607429  0.69375297  0.93808817     1.05300
O620        O  0.93627662  0.61248636  0.91007681    -0.94300
O621        O  0.86632284  0.55327828  0.89719124    -0.90100
O622        O  0.83873609  0.54102254  0.86860257    -0.83200
C623        C  0.85280437  0.53192429  0.88254755     1.11900
O624        O  0.76546488  0.66101605  0.92107324    -0.96300
Zr625      Zr  0.78268807  0.62609351  0.89847426     1.88900
O626        O  0.75268648  0.54221573  0.86463818    -0.73000
O627        O  0.84374175  0.58012537  0.93241526    -0.52200
O628        O  0.75889497  0.59030861  0.92756469    -0.96900
O629        O  0.72692619  0.63270842  0.88870463    -0.54100
O630        O  0.73432165  0.56019295  0.89085951    -0.73500
C631        C  0.72785524  0.53615878  0.87760297     0.98900
O632        O  0.80844786  0.54128777  0.83554438    -0.62300
O633        O  0.86757689  0.74477616  0.83247531    -0.57100
O634        O  0.81966937  0.60333246  0.82639327    -0.93800
O635        O  0.82154771  0.66165099  0.82382488    -0.92200
O636        O  0.94773334  0.72444478  0.83314756    -0.92600
O637        O  0.94649921  0.65492904  0.83706351    -0.91300
C638        C  0.81922791  0.63057465  0.81672886     1.17700
H639        H  0.91219109  0.74895492  0.86339093     0.33700
H640        H  0.90051357  0.60543638  0.86897917     0.44500
H641        H  0.76420517  0.61465548  0.85927805     0.38000
H642        H  0.84368349  0.65648822  0.92590139     0.34500
H643        H  0.99566559  0.69403161  0.88187002     0.26300
H644        H  0.81576004  0.56545997  0.92865840     0.32200
H645        H  0.77919526  0.60614004  0.93691070     0.38200
H646        H  0.97655376  0.73585651  0.83214176     0.32600
H647        H  0.88356367  0.73695558  0.82491745     0.31500
H648        H  0.75755229  0.66028932  0.83712665     0.33200
H649        H  0.71207807  0.61107259  0.87978376     0.32100
H650        H  0.92120588  0.63141399  0.83368994     0.36100
H651        H  0.83356768  0.54176928  0.83340391     0.28900
H652        H  0.90150815  0.77638019  0.92892838     0.33100
H653        H  0.79094274  0.68393537  0.92474234     0.36000
H654        H  0.84693031  0.74267965  0.82391089     0.28600
H655        H  0.79088339  0.51544484  0.84129901     0.41400
H656        H  0.93190710  0.59939286  0.92227753     0.31500
H657        H  0.97508360  0.65189687  0.87320939     0.39100
H658        H  0.73862623  0.65682378  0.88104895     0.31000
H659        H  0.85149259  0.55983175  0.93334871     0.31000
H660        H  0.86502753  0.73675824  0.93558256     0.31300
Zr661      Zr  0.73383633  0.87619492  0.09423324     2.17500
O662        O  0.76337682  0.86198289  0.06783947    -0.51100
O663        O  0.79064660  0.93903214  0.10142929    -0.74300
O664        O  0.73220451  0.90945193  0.06602977    -0.81100
O665        O  0.76485383  0.82416597  0.12728404    -0.82800
O666        O  0.67402334  0.90879914  0.06536612    -0.78400
O667        O  0.78196366  0.85619834  0.09973588    -0.90100
O668        O  0.77398771  0.96593892  0.12519467    -0.76000
O669        O  0.70199834  0.91231707  0.10187265    -0.85500
O670        O  0.73880732  0.88398244  0.12717840    -0.85200
O671        O  0.66770363  0.83742990  0.08313204    -0.72000
O672        O  0.70243545  0.81143904  0.10711586    -0.84100
Zr673      Zr  0.60680556  0.81485348  0.13706862     2.26400
Zr674      Zr  0.63517401  0.87264305  0.09206095     2.06300
Zr675      Zr  0.70535666  0.81946893  0.14008114     2.10000
Zr676      Zr  0.70677330  0.91985543  0.13456761     1.78800
O677        O  0.69162309  0.75256919  0.14503421    -0.92900
O678        O  0.70767932  0.98012916  0.12585385    -0.40700
O679        O  0.67313447  0.85538371  0.14762555    -0.77300
O680        O  0.63909379  0.88113618  0.12508488    -0.96000
O681        O  0.60248861  0.80734566  0.10428446    -0.89300
O682        O  0.63924759  0.77924308  0.12962825    -0.92200
C683        C  0.79831599  0.96626992  0.11323123     1.01600
C684        C  0.78716436  0.83745560  0.11291678     1.14500
C685        C  0.70783649  0.91812977  0.05862022     1.05300
O686        O  0.63215374  0.93268284  0.08911629    -0.94300
O687        O  0.57102967  0.86232260  0.10091927    -0.90100
O688        O  0.55782717  0.83308538  0.12915360    -0.83200
C689        C  0.54943924  0.84827149  0.11540910     1.11900
O690        O  0.66285459  0.76019300  0.06866175    -0.96300
Zr691      Zr  0.63636724  0.77328227  0.09657175     1.88900
O692        O  0.55717919  0.74552825  0.13211555    -0.73000
O693        O  0.59240525  0.84169955  0.06545711    -0.52200
O694        O  0.58932011  0.75183250  0.07111768    -0.96900
O695        O  0.64927127  0.71939292  0.10079650    -0.54100
O696        O  0.57627107  0.72038121  0.10859769    -0.73500
C697        C  0.55237829  0.71729671  0.12136977     0.98900
O698        O  0.56282892  0.80731403  0.16267144    -0.62300
O699        O  0.75552826  0.84251863  0.16420241    -0.57100
O700        O  0.62091554  0.80765332  0.16926431    -0.93800
O701        O  0.67866710  0.80817618  0.17159305    -0.92200
O702        O  0.74153485  0.93229889  0.16399893    -0.92600
O703        O  0.68118651  0.94453942  0.15859172    -0.91300
C704        C  0.64767637  0.80598107  0.17879335     1.17700
H705        H  0.76571511  0.89715160  0.13140714     0.33700
H706        H  0.62557671  0.89483109  0.12898287     0.44500
H707        H  0.62734645  0.75408579  0.13582312     0.38000
H708        H  0.66768766  0.83509102  0.06975617     0.34500
H709        H  0.72803331  0.00071758  0.13388352     0.26300
H710        H  0.59086010  0.86330125  0.05923531     0.32200
H711        H  0.56945210  0.75885410  0.07497843     0.38200
H712        H  0.76978898  0.94623190  0.16070909     0.32600
H713        H  0.76323956  0.82216352  0.16496185     0.31500
H714        H  0.70473294  0.74742978  0.13456316     0.33200
H715        H  0.63057602  0.69847688  0.09235966     0.32100
H716        H  0.66112311  0.92070061  0.16509195     0.36100
H717        H  0.56507713  0.83333950  0.16437933     0.28900
H718        H  0.78422928  0.88786798  0.06328693     0.33100
H719        H  0.69152700  0.77314931  0.07092912     0.36000
H720        H  0.77875132  0.86576526  0.15888930     0.28600
H721        H  0.53577846  0.78992298  0.15803745     0.41400
H722        H  0.65678087  0.95328433  0.09486677     0.31500
H723        H  0.71941461  0.98641767  0.11328528     0.39100
H724        H  0.63948117  0.70923355  0.11340299     0.31000
H725        H  0.60793321  0.83514243  0.05687286     0.31000
H726        H  0.74304263  0.85162148  0.05801711     0.31300
Zr727      Zr  0.85040404  0.10314757  0.90220288     2.17500
O728        O  0.89456002  0.11555532  0.92832273    -0.51100
O729        O  0.83320808  0.03548605  0.89609407    -0.74300
O730        O  0.81333964  0.07479732  0.93064988    -0.81100
O731        O  0.93089711  0.14165686  0.86738517    -0.82800
O732        O  0.76362674  0.08809882  0.93304769    -0.78400
O733        O  0.91355381  0.10952138  0.89498457    -0.90100
O734        O  0.79056201  0.01264010  0.87193791    -0.76000
O735        O  0.78208795  0.07496361  0.89612623    -0.85500
O736        O  0.84398420  0.09256563  0.86956118    -0.85200
O737        O  0.83388151  0.15125577  0.91239697    -0.72000
O738        O  0.88985335  0.16637688  0.88797669    -0.84100
Zr739      Zr  0.79560043  0.17383535  0.85839936     2.26400
Zr740      Zr  0.76546461  0.12338249  0.90529242     2.06300
Zr741      Zr  0.88122258  0.15524657  0.85531124     2.10000
Zr742      Zr  0.77547402  0.06351630  0.86369227     1.78800
O743        O  0.93774293  0.21945752  0.84849250    -0.92900
O744        O  0.71463149  0.00923530  0.87585983    -0.40700
O745        O  0.81259534  0.12584883  0.84905140    -0.77300
O746        O  0.75607932  0.11031748  0.87265234    -0.96000
O747        O  0.80344043  0.18597280  0.89084461    -0.89300
O748        O  0.86440919  0.20364686  0.86429054    -0.92200
C749        C  0.81229440  0.00890797  0.88409776     1.01600
C750        C  0.93746780  0.12567893  0.88141947     1.14500
C751        C  0.78377179  0.07310804  0.93919501     1.05300
O752        O  0.69832078  0.07042118  0.91027959    -0.94300
O753        O  0.71755411  0.14257693  0.89713557    -0.90100
O754        O  0.73318779  0.16670732  0.86793746    -0.83200
C755        C  0.71110129  0.15661276  0.88236977     1.11900
O756        O  0.92057372  0.23207612  0.92152151    -0.96300
Zr757      Zr  0.87152928  0.21346883  0.89710552     1.88900
O758        O  0.82056122  0.24426237  0.86158487    -0.73000
O759        O  0.76735084  0.16352816  0.93145252    -0.52200
O760        O  0.85563789  0.23786405  0.92493474    -0.96900
O761        O  0.93746009  0.26481105  0.88830956    -0.54100
O762        O  0.86113805  0.26577551  0.88652728    -0.73500
C763        C  0.84227325  0.27089586  0.87336938     0.98900
O764        O  0.75205959  0.17921409  0.83592935    -0.62300
O765        O  0.90703938  0.13119185  0.83102661    -0.57100
O766        O  0.81454382  0.17538928  0.82583340    -0.93800
O767        O  0.85978567  0.15579870  0.82380679    -0.92200
O768        O  0.78816647  0.04018142  0.83470595    -0.92600
O769        O  0.72431533  0.04626320  0.84050021    -0.91300
C770        C  0.83616360  0.16554121  0.81650937     1.17700
H771        H  0.85435994  0.07623685  0.86538794     0.33700
H772        H  0.72882555  0.09951491  0.86952097     0.44500
H773        H  0.87895298  0.22774114  0.85734980     0.38000
H774        H  0.83780522  0.15505235  0.92566295     0.34500
H775        H  0.69510161  0.01799791  0.87484702     0.26300
H776        H  0.76811439  0.18679368  0.92577035     0.32200
H777        H  0.87255678  0.26678381  0.92429608     0.38200
H778        H  0.81712884  0.05231292  0.83419000     0.32600
H779        H  0.93590793  0.14891634  0.83123326     0.31500
H780        H  0.94014072  0.21999624  0.83480891     0.33200
H781        H  0.94137412  0.28855648  0.89494405     0.32100
H782        H  0.73042616  0.07167874  0.83490710     0.36100
H783        H  0.76882018  0.20274447  0.82832351     0.28900
H784        H  0.88646722  0.08938751  0.93362822     0.33100
H785        H  0.91252834  0.20748061  0.92844200     0.36000
H786        H  0.90283203  0.10563044  0.83556310     0.28600
H787        H  0.74307372  0.15655651  0.82740324     0.41400
H788        H  0.68915533  0.07871429  0.92126358     0.31500
H789        H  0.70632529  0.98809881  0.86649287     0.39100
H790        H  0.93556290  0.27047076  0.87510383     0.31000
H791        H  0.74085932  0.14867484  0.93707364     0.31000
H792        H  0.88703290  0.12885570  0.93777830     0.31300
C793        C  0.75019638  0.95852567  0.01097665    -0.14100
C794        C  0.74359078  0.99034838  0.00962813     0.16300
C795        C  0.72431944  0.99743607  0.02442326     0.02600
C796        C  0.71211311  0.97283465  0.03995792    -0.12600
C797        C  0.71979893  0.94180087  0.04146757    -0.03700
C798        C  0.73938627  0.93490913  0.02682651     0.01800
C799        C  0.75503101  0.01404646  0.99226673     0.08700
N800        N  0.71833581  0.03037349  0.02432472     0.65000
H801        H  0.69766341  0.97890200  0.05123230     0.17900
N802        N  0.74745938  0.90336748  0.02748178     0.75500
H803        H  0.76324048  0.95136542  0.99949263     0.09400
C804        C  0.79214355  0.02753897  0.98391082     0.03100
C805        C  0.80042782  0.04620275  0.96667739    -0.05600
C806        C  0.77285125  0.05287379  0.95746913    -0.24000
C807        C  0.73600209  0.04028178  0.96606826     0.12400
C808        C  0.72731974  0.02052107  0.98308324    -0.13100
N809        N  0.82223301  0.02332805  0.99287995     0.64100
H810        H  0.82917251  0.05619003  0.96066048     0.11900
N811        N  0.70652633  0.04622023  0.95760800     0.60700
H812        H  0.69819325  0.00921240  0.98885979     0.08100
O813        O  0.78270315  0.91116400  0.02843096    -0.40800
O814        O  0.72125897  0.86952720  0.02240544    -0.39900
O815        O  0.68393437  0.02467542  0.02250292    -0.39900
O816        O  0.74485112  0.06273885  0.03076126    -0.37600
O817        O  0.70109009  0.07332219  0.96351605    -0.38500
O818        O  0.68069281  0.01956172  0.94751420    -0.34700
O819        O  0.83332870  0.00115581  0.98580109    -0.36100
O820        O  0.84353709  0.04819104  0.00493897    -0.40400
C821        C  0.86758432  0.87732298  0.88658119    -0.14100
C822        C  0.82923234  0.87052716  0.88419487     0.16300
C823        C  0.79884424  0.83222860  0.87980578     0.02600
C824        C  0.80721692  0.80173168  0.87800708    -0.12600
C825        C  0.84545122  0.80840416  0.88075624    -0.03700
C826        C  0.87584874  0.84670134  0.88505714     0.01800
C827        C  0.82232678  0.90434730  0.88484747     0.08700
N828        N  0.75916835  0.82359842  0.87758856     0.65000
H829        H  0.78343802  0.77240456  0.87485129     0.17900
N830        N  0.91561576  0.85548536  0.88687621     0.75500
H831        H  0.89155308  0.90684421  0.88912200     0.09400
C832        C  0.83267917  0.92919487  0.90047205     0.03100
C833        C  0.82845027  0.96245440  0.90002730    -0.05600
C834        C  0.81434657  0.97210274  0.88412919    -0.24000
C835        C  0.80412458  0.94713051  0.86842635     0.12400
C836        C  0.80793327  0.91360451  0.86900888    -0.13100
N837        N  0.84726905  0.92093907  0.91699266     0.64100
H838        H  0.83655793  0.98096726  0.91224656     0.11900
N839        N  0.79232671  0.95655663  0.85134869     0.60700
H840        H  0.80108025  0.89551236  0.85669123     0.08100
O841        O  0.93738872  0.86563183  0.87270767    -0.40800
O842        O  0.93105019  0.86199081  0.90277514    -0.39900
O843        O  0.74393565  0.81619219  0.86162628    -0.39900
O844        O  0.73724349  0.81483875  0.89165630    -0.37600
O845        O  0.75659503  0.93797672  0.84665827    -0.38500
O846        O  0.81808008  0.97680014  0.83940462    -0.34700
O847        O  0.88385888  0.93847939  0.91985582    -0.36100
O848        O  0.82406795  0.90424324  0.93035951    -0.40400
C849        C  0.81962958  0.35371249  0.86664135    -0.14100
C850        C  0.85431608  0.38601412  0.87337059     0.16300
C851        C  0.88540207  0.38047351  0.87913097     0.02600
C852        C  0.88121320  0.34304946  0.87838282    -0.12600
C853        C  0.84623466  0.31038788  0.87207022    -0.03700
C854        C  0.81521984  0.31605656  0.86602925     0.01800
C855        C  0.85625932  0.42444770  0.87562227     0.08700
N856        N  0.92143720  0.41255728  0.88584030     0.65000
H857        H  0.90545956  0.33948227  0.88301719     0.17900
N858        N  0.77802235  0.28360102  0.86070685     0.75500
H859        H  0.79518187  0.35745593  0.86256806     0.09400
C860        C  0.85400210  0.44519640  0.86025112     0.03100
C861        C  0.85334391  0.48004549  0.86294001    -0.05600
C862        C  0.85428313  0.49490055  0.88084645    -0.24000
C863        C  0.85624853  0.47380140  0.89628968     0.12400
C864        C  0.85759138  0.43914863  0.89352820    -0.13100
N865        N  0.85264305  0.43142578  0.84176657     0.64100
H866        H  0.85212027  0.49556629  0.85079104     0.11900
N867        N  0.85415789  0.48544711  0.91483398     0.60700
H868        H  0.85818986  0.42279632  0.90548687     0.08100
O869        O  0.76988503  0.27623325  0.84372397    -0.40800
O870        O  0.75088186  0.26782580  0.87258469    -0.39900
O871        O  0.92820588  0.41601009  0.90305117    -0.39900
O872        O  0.94950296  0.43116328  0.87467181    -0.37600
O873        O  0.82093711  0.47263754  0.92234509    -0.38500
O874        O  0.88457883  0.50045851  0.92484808    -0.34700
O875        O  0.82022900  0.41439093  0.83326118    -0.36100
O876        O  0.88419128  0.44412329  0.83271761    -0.40400
C877        C  0.00888792  0.70579887  0.01922023    -0.14100
C878        C  0.01816444  0.73591657  0.00628363     0.16300
C879        C  0.04695513  0.77469376  0.01101866     0.02600
C880        C  0.06544041  0.78261436  0.02839017    -0.12600
C881        C  0.05621051  0.75253886  0.04133591    -0.03700
C882        C  0.02763179  0.71370694  0.03656931     0.01800
C883        C  0.99616441  0.72644990  0.98838243     0.08700
N884        N  0.05872648  0.80623731  0.99814699     0.65000
H885        H  0.08761242  0.81256974  0.03168582     0.17900
N886        N  0.01556287  0.68236319  0.04956473     0.75500
H887        H  0.98618538  0.67601876  0.01601737     0.09400
C888        C  0.99461403  0.69762385  0.97621682     0.03100
C889        C  0.97131870  0.68731865  0.96019607    -0.05600
C890        C  0.94939425  0.70547994  0.95566611    -0.24000
C891        C  0.95101933  0.73446445  0.96788810     0.12400
C892        C  0.97407032  0.74443011  0.98404595    -0.13100
N893        N  0.01744174  0.67926011  0.97964801     0.64100
H894        H  0.97113217  0.66540053  0.95101870     0.11900
N895        N  0.92809549  0.75279196  0.96469049     0.60700
H896        H  0.97376247  0.76560405  0.99355169     0.08100
O897        O  0.02802037  0.65858270  0.04782785    -0.40800
O898        O  0.98656469  0.67364583  0.06001537    -0.39900
O899        O  0.04408372  0.82825882  0.99942843    -0.39900
O900        O  0.08994728  0.81778376  0.98895943    -0.37600
O901        O  0.89436845  0.73809401  0.97188600    -0.38500
O902        O  0.94497058  0.78789002  0.95911303    -0.34700
O903        O  0.00036182  0.64336217  0.98394176    -0.36100
O904        O  0.05294214  0.69626511  0.97459077    -0.40400
C905        C  0.94227554  0.82199645  0.12775248    -0.14100
C906        C  0.91763342  0.80806800  0.11217078     0.16300
C907        C  0.92790924  0.79169838  0.09725440     0.02600
C908        C  0.96254639  0.78991654  0.09812446    -0.12600
C909        C  0.98649033  0.80295609  0.11392303    -0.03700
C910        C  0.97604734  0.81886374  0.12890981     0.01800
C911        C  0.88267638  0.81296739  0.11153277     0.08700
N912        N  0.90277769  0.77532955  0.08150487     0.65000
H913        H  0.97032819  0.77745402  0.08658714     0.17900
N914        N  0.00014712  0.83327896  0.14510356     0.75500
H915        H  0.93549114  0.83579837  0.13904733     0.09400
C916        C  0.85482516  0.79902878  0.12597882     0.03100
C917        C  0.82449764  0.80761306  0.12602012    -0.05600
C918        C  0.82050432  0.82970845  0.11174335    -0.24000
C919        C  0.84812573  0.84302399  0.09697822     0.12400
C920        C  0.87895919  0.83483950  0.09715493    -0.13100
N921        N  0.85643344  0.77545776  0.14063356     0.64100
H922        H  0.80377708  0.79644614  0.13742548     0.11900
N923        N  0.84544790  0.86445931  0.08159973     0.60700
H924        H  0.90057201  0.84629741  0.08611994     0.08100
O925        O  0.02087655  0.86985065  0.14764028    -0.40800
O926        O  0.99367034  0.81032909  0.15855309    -0.39900
O927        O  0.91248245  0.79360736  0.06628992    -0.39900
O928        O  0.87693868  0.73938235  0.08160698    -0.37600
O929        O  0.82729343  0.84587656  0.06723744    -0.38500
O930        O  0.86951513  0.90080660  0.08038399    -0.34700
O931        O  0.86792404  0.79049218  0.15649648    -0.36100
O932        O  0.83704969  0.73856467  0.13908075    -0.40400
C933        C  0.45386115  0.84554708  0.10303004    -0.14100
C934        C  0.44021056  0.84866127  0.12059537     0.16300
C935        C  0.46332683  0.85283832  0.13631835     0.02600
C936        C  0.49880970  0.85291793  0.13428031    -0.12600
C937        C  0.51246364  0.84968569  0.11669861    -0.03700
C938        C  0.48979307  0.84659026  0.10091725     0.01800
C939        C  0.40049947  0.84435156  0.12225971     0.08700
N940        N  0.45146103  0.85758802  0.15442499     0.65000
H941        H  0.51598645  0.85591364  0.14656455     0.17900
N942        N  0.50153245  0.84208069  0.08274754     0.75500
H943        H  0.43586284  0.84086806  0.09087337     0.09400
C944        C  0.39020897  0.86841744  0.11209731     0.03100
C945        C  0.35166216  0.86129426  0.11267600    -0.05600
C946        C  0.32215206  0.83000696  0.12301961    -0.24000
C947        C  0.33263453  0.80630069  0.13348540     0.12400
C948        C  0.37153999  0.81374477  0.13305393    -0.13100
N949        N  0.41854040  0.90039955  0.10112604     0.64100
H950        H  0.34483172  0.88046032  0.10472319     0.11900
N951        N  0.30392712  0.77324974  0.14373177     0.60700
H952        H  0.37877290  0.79442305  0.14060506     0.08100
O953        O  0.51637923  0.87102590  0.07183343    -0.40800
O954        O  0.48968191  0.80804433  0.07643130    -0.39900
O955        O  0.44146764  0.83066345  0.16628279    -0.39900
O956        O  0.45865724  0.89117371  0.15962525    -0.37600
O957        O  0.30369494  0.77500229  0.16120545    -0.38500
O958        O  0.28510277  0.74028942  0.13580924    -0.34700
O959        O  0.41982943  0.89575102  0.08386560    -0.36100
O960        O  0.43425486  0.93478751  0.10760124    -0.40400
C961        C  0.64045939  0.43434051  0.86698252    -0.14100
C962        C  0.61305826  0.43243597  0.88002813     0.16300
C963        C  0.62364536  0.46416739  0.89213552     0.02600
C964        C  0.66093789  0.49718313  0.89093263    -0.12600
C965        C  0.68868785  0.49975430  0.87777120    -0.03700
C966        C  0.67797142  0.46764683  0.86565560     0.01800
C967        C  0.57401869  0.39667546  0.88125300     0.08700
N968        N  0.59655957  0.46377218  0.90549544     0.65000
H969        H  0.66779810  0.52117266  0.90040305     0.17900
N970        N  0.70467345  0.46782013  0.85216930     0.75500
H971        H  0.63286915  0.40956402  0.85791982     0.09400
C972        C  0.54862356  0.38302895  0.86585173     0.03100
C973        C  0.51235823  0.34861500  0.86729293    -0.05600
C974        C  0.50069621  0.32716198  0.88389123    -0.24000
C975        C  0.52617457  0.34067090  0.89933391     0.12400
C976        C  0.56251663  0.37534023  0.89789820    -0.13100
N977        N  0.55894846  0.40411878  0.84872852     0.64100
H978        H  0.49307273  0.33869624  0.85531846     0.11900
N979        N  0.51696063  0.31820774  0.91603208     0.60700
H980        H  0.58235368  0.38505689  0.90966275     0.08100
O981        O  0.72432534  0.45138019  0.85594136    -0.40800
O982        O  0.70141714  0.47542219  0.83548240    -0.39900
O983        O  0.60226975  0.46094245  0.92250982    -0.39900
O984        O  0.57304041  0.47520122  0.90077208    -0.37600
O985        O  0.52700810  0.29252089  0.91761231    -0.38500
O986        O  0.50718719  0.32980285  0.93032478    -0.34700
O987        O  0.57140707  0.39236098  0.83547933    -0.36100
O988        O  0.54717256  0.42802734  0.84552046    -0.40400
C989        C  0.13201761  0.94903816  0.86699672    -0.14100
C990        C  0.11864266  0.93233033  0.88449973     0.16300
C991        C  0.13872822  0.95334515  0.90048861     0.02600
C992        C  0.17113258  0.99121039  0.89872294    -0.12600
C993        C  0.18481797  0.00814245  0.88116153    -0.03700
C994        C  0.16504162  0.98637457  0.86515153     0.01800
C995        C  0.08448576  0.89231315  0.88548319     0.08700
N996        N  0.12840857  0.93565689  0.91844042     0.65000
H997        H  0.18651575  0.00686574  0.91116089     0.17900
N998        N  0.17773616  0.00161823  0.84690884     0.75500
H999        H  0.11683374  0.93276425  0.85463964     0.09400
C1000       C  0.04782005  0.88528554  0.89202717     0.03100
C1001       C  0.01558661  0.84726101  0.89152340    -0.05600
C1002       C  0.01874506  0.81581676  0.88418355    -0.24000
C1003       C  0.05563487  0.82306231  0.87758891     0.12400
C1004       C  0.08810168  0.86110937  0.87838930    -0.13100
N1005       N  0.04211927  0.91668589  0.89806931     0.64100
H1006       H  0.98749495  0.84270005  0.89631405     0.11900
N1007       N  0.06087013  0.79228446  0.87023335     0.60700
H1008       H  0.11626591  0.86648795  0.87320663     0.08100
O1009       O  0.16113771  0.01757561  0.83860139    -0.40800
O1010       O  0.19759071  0.99040509  0.83766574    -0.39900
O1011       O  0.14447410  0.91686814  0.92426849    -0.39900
O1012       O  0.11179137  0.94689031  0.92988172    -0.37600
O1013       O  0.06118902  0.78814180  0.85288387    -0.38500
O1014       O  0.07345915  0.77529315  0.88066552    -0.34700
O1015       O  0.03461367  0.93549927  0.88617037    -0.36100
O1016       O  0.03424164  0.91844545  0.91489070    -0.40400
C1017       C  0.56831876  0.19724507  0.86762479    -0.14100
C1018       C  0.56797661  0.16419596  0.87520126     0.16300
C1019       C  0.53226183  0.13300373  0.88196171     0.02600
C1020       C  0.49825415  0.13571008  0.88148340    -0.12600
C1021       C  0.49845002  0.16888037  0.87418673    -0.03700
C1022       C  0.53392559  0.19968879  0.86685254     0.01800
C1023       C  0.60527582  0.16352356  0.87697500     0.08700
N1024       N  0.52973060  0.09796251  0.88912843     0.65000
H1025       H  0.47128943  0.11133131  0.88686917     0.17900
N1026       N  0.53610598  0.23426906  0.85929749     0.75500
H1027       H  0.59565184  0.22181656  0.86272574     0.09400
C1028       C  0.62975016  0.16937143  0.86160063     0.03100
C1029       C  0.66418336  0.16776992  0.86387082    -0.05600
C1030       C  0.67539722  0.16053977  0.88130414    -0.24000
C1031       C  0.65157948  0.15626720  0.89686798     0.12400
C1032       C  0.61700063  0.15779774  0.89453199    -0.13100
N1033       N  0.61963937  0.17582203  0.84342830     0.64100
H1034       H  0.68177781  0.17147677  0.85166002     0.11900
N1035       N  0.66239399  0.15156139  0.91520692     0.60700
H1036       H  0.59945327  0.15509460  0.90662638     0.08100
O1037       O  0.53292514  0.23659927  0.84199208    -0.40800
O1038       O  0.55067403  0.26518399  0.86895369    -0.39900
O1039       O  0.52772474  0.09262872  0.90644700    -0.39900
O1040       O  0.51895384  0.06887771  0.87847383    -0.37600
O1041       O  0.68425031  0.18167658  0.92473790    -0.38500
O1042       O  0.64315387  0.11875834  0.92319519    -0.34700
O1043       O  0.63729144  0.21010755  0.83680109    -0.36100
O1044       O  0.60192660  0.14698271  0.83257035    -0.40400
C1045       C  0.11196663  0.14902352  0.86711319    -0.14100
C1046       C  0.09355340  0.14625821  0.88416188     0.16300
C1047       C  0.11337397  0.14816431  0.90074503     0.02600
C1048       C  0.15136319  0.15374258  0.90000558    -0.12600
C1049       C  0.17051698  0.15836655  0.88298727    -0.03700
C1050       C  0.15015450  0.15514134  0.86637194     0.01800
C1051       C  0.05364900  0.14118183  0.88416076     0.08700
N1052       N  0.09595474  0.14585748  0.91843464     0.65000
H1053       H  0.16620360  0.15508877  0.91284383     0.17900
N1054       N  0.16674602  0.15549757  0.84868112     0.75500
H1055       H  0.09635294  0.14589183  0.85426526     0.09400
C1056       C  0.04643900  0.16870491  0.87521022     0.03100
C1057       C  0.00833734  0.16241779  0.87433566    -0.05600
C1058       C  0.97658326  0.12892087  0.88222649    -0.24000
C1059       C  0.98360010  0.10096867  0.89105976     0.12400
C1060       C  0.02207552  0.10743671  0.89201968    -0.13100
N1061       N  0.07771202  0.20374587  0.86725525     0.64100
H1062       H  0.00378199  0.18450520  0.86768644     0.11900
N1063       N  0.95196119  0.06494173  0.89805378     0.60700
H1064       H  0.02715149  0.08546874  0.89841202     0.08100
O1065       O  0.17656786  0.18422933  0.83793677    -0.40800
O1066       O  0.16273305  0.12386984  0.84222945    -0.39900
O1067       O  0.08345199  0.11496494  0.92794332    -0.39900
O1068       O  0.10169368  0.17702870  0.92621671    -0.37600
O1069       O  0.94733718  0.05975062  0.91534736    -0.38500
O1070       O  0.93471396  0.03578151  0.88732582    -0.34700
O1071       O  0.08215422  0.20612450  0.84987523    -0.36100
O1072       O  0.09445247  0.23463290  0.87691116    -0.40400
C1073       C  0.90831922  0.02900301  0.11826151    -0.14100
C1074       C  0.91426804  0.06560180  0.11263027     0.16300
C1075       C  0.88199781  0.06929144  0.10692864     0.02600
C1076       C  0.84411149  0.03660715  0.10749090    -0.12600
C1077       C  0.83818989  0.00008673  0.11321183    -0.03700
C1078       C  0.87055710  0.99616409  0.11847591     0.01800
C1079       C  0.95444095  0.09952476  0.11262690     0.08700
N1080       N  0.88729693  0.10600005  0.10057965     0.65000
H1081       H  0.81931099  0.03959179  0.10321178     0.17900
N1082       N  0.86540857  0.95930134  0.12450311     0.75500
H1083       H  0.93311907  0.02596687  0.12248283     0.09400
C1084       C  0.97454314  0.11570298  0.12933696     0.03100
C1085       C  0.01221078  0.14849414  0.12891359    -0.05600
C1086       C  0.03067580  0.16552666  0.11200071    -0.24000
C1087       C  0.01095660  0.14810932  0.09519955     0.12400
C1088       C  0.97301394  0.11543737  0.09569544    -0.13100
N1089       N  0.95671029  0.09973461  0.14686307     0.64100
H1090       H  0.02697511  0.16077308  0.14197248     0.11900
N1091       N  0.02813649  0.16393999  0.07755407     0.60700
H1092       H  0.95779366  0.10259003  0.08279114     0.08100
O1093       O  0.85858052  0.95001402  0.14140010    -0.40800
O1094       O  0.87650331  0.94086214  0.11414962    -0.39900
O1095       O  0.88820876  0.11233367  0.08338010    -0.39900
O1096       O  0.88285002  0.12812321  0.11177660    -0.37600
O1097       O  0.04047750  0.14594804  0.06762842    -0.38500
O1098       O  0.02264438  0.18992553  0.07027023    -0.34700
O1099       O  0.96512833  0.07673850  0.15519809    -0.36100
O1100       O  0.94018662  0.11519712  0.15567771    -0.40400
C1101       C  0.48157851  0.60786764  0.11903327    -0.14100
C1102       C  0.44539606  0.60668718  0.11870648     0.16300
C1103       C  0.44468130  0.64192540  0.12149040     0.02600
C1104       C  0.47994029  0.67748826  0.12375931    -0.12600
C1105       C  0.51616301  0.67881570  0.12295759    -0.03700
C1106       C  0.51678512  0.64343345  0.12092435     0.01800
C1107       C  0.40879215  0.56805158  0.11693190     0.08700
N1108       N  0.40864533  0.64251219  0.12104800     0.65000
H1109       H  0.47904876  0.70447390  0.12504409     0.17900
N1110       N  0.55289473  0.64298193  0.12090651     0.75500
H1111       H  0.48257768  0.58093851  0.11793245     0.09400
C1112       C  0.40303068  0.54130101  0.10253084     0.03100
C1113       C  0.36870381  0.50439254  0.10204340    -0.05600
C1114       C  0.33964358  0.49299240  0.11581133    -0.24000
C1115       C  0.34629141  0.51984580  0.13050254     0.12400
C1116       C  0.38043629  0.55660630  0.13083299    -0.13100
N1117       N  0.43156811  0.55117805  0.08818799     0.64100
H1118       H  0.36498959  0.48456586  0.09078195     0.11900
N1119       N  0.31929048  0.51068096  0.14547690     0.60700
H1120       H  0.38518282  0.57611932  0.14239569     0.08100
O1121       O  0.56505592  0.63625387  0.10591884    -0.40800
O1122       O  0.56638520  0.63884741  0.13608156    -0.39900
O1123       O  0.39531694  0.64837005  0.13589092    -0.39900
O1124       O  0.39596044  0.64698699  0.10570824    -0.37600
O1125       O  0.32873097  0.50453394  0.16132501    -0.38500
O1126       O  0.29365309  0.52085409  0.14428483    -0.34700
O1127       O  0.45227105  0.53494782  0.08792902    -0.36100
O1128       O  0.42961434  0.56840096  0.07382812    -0.40400
C1129       C  0.17055919  0.60387515  0.13759421    -0.14100
C1130       C  0.17203922  0.58623448  0.12097553     0.16300
C1131       C  0.16777321  0.60167770  0.10403677     0.02600
C1132       C  0.16237656  0.63420733  0.10400558    -0.12600
C1133       C  0.16105252  0.65217810  0.12061896    -0.03700
C1134       C  0.16508495  0.63641008  0.13763237     0.01800
C1135       C  0.17322170  0.54911706  0.12169017     0.08700
N1136       N  0.16929651  0.58495920  0.08667119     0.65000
H1137       H  0.15991511  0.64584922  0.09077695     0.17900
N1138       N  0.16182839  0.65156805  0.15514908     0.75500
H1139       H  0.17205157  0.59132895  0.15072686     0.09400
C1140       C  0.20304214  0.54605594  0.13112479     0.03100
C1141       C  0.20188549  0.50984977  0.13182817    -0.05600
C1142       C  0.17154716  0.47629495  0.12320317    -0.24000
C1143       C  0.14083639  0.47928031  0.11446378     0.12400
C1144       C  0.14208632  0.51535245  0.11377680    -0.13100
N1145       N  0.23538492  0.57963756  0.13950743     0.64100
H1146       H  0.22543037  0.50829596  0.13872334     0.11900
N1147       N  0.10732386  0.44575029  0.10673126     0.60700
H1148       H  0.11798128  0.51678780  0.10728919     0.08100
O1149       O  0.12811774  0.63947776  0.16197754    -0.40800
O1150       O  0.19143571  0.66745270  0.16568608    -0.39900
O1151       O  0.13833347  0.56652493  0.07715474    -0.39900
O1152       O  0.20218239  0.59654631  0.07902852    -0.37600
O1153       O  0.07864147  0.42420276  0.11711054    -0.38500
O1154       O  0.10283222  0.44281274  0.08935651    -0.34700
O1155       O  0.23583597  0.58402502  0.15686555    -0.36100
O1156       O  0.26678685  0.59917558  0.13042657    -0.40400
C1157       C  0.15600884  0.02128232  0.09533984    -0.14100
C1158       C  0.16263410  0.04201989  0.11203252     0.16300
C1159       C  0.16082281  0.02322961  0.12887965     0.02600
C1160       C  0.15530119  0.98531449  0.12873070    -0.12600
C1161       C  0.14983285  0.96461238  0.11204073    -0.03700
C1162       C  0.14897956  0.98262524  0.09519726     0.01800
C1163       C  0.16940271  0.08250314  0.11163411     0.08700
N1164       N  0.16168075  0.04105842  0.14628484     0.65000
H1165       H  0.15437112  0.97164963  0.14190530     0.17900
N1166       N  0.14118792  0.96242057  0.07786696     0.75500
H1167       H  0.15606497  0.03515016  0.08234850     0.09400
C1168       C  0.20673130  0.11539938  0.11517260     0.03100
C1169       C  0.21186159  0.15324671  0.11448191    -0.05600
C1170       C  0.18038739  0.15907991  0.11014340    -0.24000
C1171       C  0.14294406  0.12593743  0.10664042     0.12400
C1172       C  0.13791409  0.08816121  0.10732144    -0.13100
N1173       N  0.24006502  0.11104502  0.11876852     0.64100
H1174       H  0.24079510  0.17824946  0.11709561     0.11900
N1175       N  0.10922773  0.12984538  0.10337437     0.60700
H1176       H  0.10906769  0.06299077  0.10472454     0.08100
O1177       O  0.10633486  0.94397530  0.07188185    -0.40800
O1178       O  0.16921537  0.97065057  0.06684675    -0.39900
O1179       O  0.12972383  0.03539870  0.15315323    -0.39900
O1180       O  0.19120190  0.05256374  0.15672003    -0.37600
O1181       O  0.09647823  0.12678916  0.08704295    -0.38500
O1182       O  0.08736330  0.12682052  0.11684055    -0.34700
O1183       O  0.26398232  0.11708775  0.10578737    -0.36100
O1184       O  0.25096058  0.11196584  0.13530529    -0.40400
C1185       C  0.24087250  0.22925910  0.01988469    -0.14100
C1186       C  0.26399694  0.25795877  0.00683697     0.16300
C1187       C  0.27593168  0.29758478  0.01055772     0.02600
C1188       C  0.26459999  0.30772289  0.02717592    -0.12600
C1189       C  0.24077698  0.27893330  0.04018692    -0.03700
C1190       C  0.22916533  0.23919183  0.03640030     0.01800
C1191       C  0.27382124  0.24526011  0.98922548     0.08700
N1192       N  0.29764810  0.32761794  0.99721023     0.65000
H1193       H  0.27348136  0.33824219  0.02959858     0.17900
N1194       N  0.20622368  0.20849773  0.04928323     0.75500
H1195       H  0.23167291  0.19874377  0.01717734     0.09400
C1196       C  0.31213915  0.25291303  0.98536373     0.03100
C1197       C  0.31976356  0.23924803  0.96881139    -0.05600
C1198       C  0.28968708  0.21732054  0.95592279    -0.24000
C1199       C  0.25111203  0.20899432  0.96004924     0.12400
C1200       C  0.24359838  0.22302089  0.97655810    -0.13100
N1201       N  0.34328461  0.27295533  0.99844419     0.64100
H1202       H  0.34947360  0.24543400  0.96615974     0.11900
N1203       N  0.21965053  0.18835887  0.94722479     0.60700
H1204       H  0.21394505  0.21674344  0.97946182     0.08100
O1205       O  0.22307510  0.19568872  0.05968586    -0.40800
O1206       O  0.16942747  0.18850182  0.04721136    -0.39900
O1207       O  0.27922121  0.33422762  0.98473288    -0.39900
O1208       O  0.33270945  0.35342514  0.00074072    -0.37600
O1209       O  0.19547278  0.15241741  0.94986182    -0.38500
O1210       O  0.21074604  0.20771902  0.93631552    -0.34700
O1211       O  0.34917459  0.25322832  0.01048320    -0.36100
O1212       O  0.37019232  0.30757815  0.99502182    -0.40400
C1213       C  0.78818654  0.16124679  0.72865171    -0.14100
C1214       C  0.82062727  0.16094270  0.73666009     0.16300
C1215       C  0.84599041  0.15466960  0.72522140     0.02600
C1216       C  0.83886365  0.14902012  0.70620941    -0.12600
C1217       C  0.80703815  0.15004690  0.69802917    -0.03700
C1218       C  0.78119127  0.15588586  0.70943922     0.01800
C1219       C  0.82562897  0.16323286  0.75710050     0.08700
N1220       N  0.88018764  0.15563647  0.73259289     0.65000
H1221       H  0.85959335  0.14555613  0.69763269     0.17900
N1222       N  0.74652021  0.15383677  0.70201355     0.75500
H1223       H  0.76765503  0.16459365  0.73741745     0.09400
C1224       C  0.83185523  0.19640083  0.76735396     0.03100
C1225       C  0.83510983  0.19659954  0.78672108    -0.05600
C1226       C  0.83275688  0.16432769  0.79610563    -0.24000
C1227       C  0.82652897  0.13111977  0.78583599     0.12400
C1228       C  0.82305136  0.13088155  0.76651685    -0.13100
N1229       N  0.83620685  0.23056405  0.75827686     0.64100
H1230       H  0.84006718  0.22232971  0.79444874     0.11900
N1231       N  0.82049260  0.09624429  0.79487586     0.60700
H1232       H  0.81733546  0.10484472  0.75883611     0.08100
O1233       O  0.74370788  0.18437920  0.70166626    -0.40800
O1234       O  0.71583729  0.12069989  0.70029706    -0.39900
O1235       O  0.88238484  0.12473960  0.73251872    -0.39900
O1236       O  0.91096714  0.18835947  0.73509832    -0.37600
O1237       O  0.78591047  0.07013798  0.79900732    -0.38500
O1238       O  0.84714692  0.08733430  0.79424749    -0.34700
O1239       O  0.80813653  0.23743645  0.75859973    -0.36100
O1240       O  0.87019268  0.25778851  0.75401282    -0.40400
C1241       C  0.02363484  0.29784780  0.48183730    -0.14100
C1242       C  0.01868672  0.26492008  0.49162086     0.16300
C1243       C  0.03446303  0.24255948  0.48426229     0.02600
C1244       C  0.05489323  0.25347550  0.46749860    -0.12600
C1245       C  0.06013799  0.28652735  0.45764546    -0.03700
C1246       C  0.04420045  0.30893883  0.46504025     0.01800
C1247       C  0.99493231  0.25289736  0.50882896     0.08700
N1248       N  0.03055752  0.20894060  0.49376597     0.65000
H1249       H  0.06700134  0.23592799  0.46228703     0.17900
N1250       N  0.04709059  0.34202805  0.45543012     0.75500
H1251       H  0.01051939  0.31451341  0.48700832     0.09400
C1252       C  0.00286974  0.27930651  0.52364778     0.03100
C1253       C  0.97911986  0.26685188  0.53946969    -0.05600
C1254       C  0.94771078  0.22819033  0.54096027    -0.24000
C1255       C  0.93920897  0.20208855  0.52595215     0.12400
C1256       C  0.96255670  0.21475962  0.51003461    -0.13100
N1257       N  0.03558122  0.31846429  0.52309798     0.64100
H1258       H  0.98609069  0.28720722  0.55090608     0.11900
N1259       N  0.90602330  0.16321402  0.52626465     0.60700
H1260       H  0.95483055  0.19482215  0.49838469     0.08100
O1261       O  0.07052957  0.37620136  0.46129102    -0.40800
O1262       O  0.02052534  0.33693474  0.44407001    -0.39900
O1263       O  0.00669305  0.17507987  0.48769207    -0.39900
O1264       O  0.05701648  0.21316800  0.50498733    -0.37600
O1265       O  0.87264142  0.15792494  0.52187600    -0.38500
O1266       O  0.91152029  0.13427056  0.52642802    -0.34700
O1267       O  0.02956740  0.34705406  0.52233284    -0.36100
O1268       O  0.06943170  0.32460062  0.52712116    -0.40400
C1269       C  0.18894378  0.31914832  0.22787527    -0.14100
C1270       C  0.18291754  0.34635186  0.23777751     0.16300
C1271       C  0.17740884  0.37411609  0.22777750     0.02600
C1272       C  0.17589049  0.37270332  0.20829708    -0.12600
C1273       C  0.17969458  0.34393861  0.19853574    -0.03700
C1274       C  0.18739322  0.31770560  0.20850356     0.01800
C1275       C  0.18369257  0.34547701  0.25843205     0.08700
N1276       N  0.17234718  0.40327298  0.23714142     0.65000
H1277       H  0.17075763  0.39356105  0.20079726     0.17900
N1278       N  0.19630849  0.29112308  0.19913852     0.75500
H1279       H  0.19555680  0.29918085  0.23524263     0.09400
C1280       C  0.15931093  0.31052475  0.26828351     0.03100
C1281       C  0.16264178  0.30941172  0.28756065    -0.05600
C1282       C  0.18969649  0.34271886  0.29758178    -0.24000
C1283       C  0.21430519  0.37772274  0.28773356     0.12400
C1284       C  0.21115703  0.37875017  0.26834398    -0.13100
N1285       N  0.13000356  0.27613137  0.25898218     0.64100
H1286       H  0.14285567  0.28246719  0.29479407     0.11900
N1287       N  0.24390179  0.41188625  0.29703681     0.60700
H1288       H  0.23102257  0.40540810  0.26095430     0.08100
O1289       O  0.23181124  0.30145267  0.19609061    -0.40800
O1290       O  0.17057396  0.25519920  0.19831432    -0.39900
O1291       O  0.19990825  0.43854390  0.23693943    -0.39900
O1292       O  0.13821006  0.39561814  0.24163895    -0.37600
O1293       O  0.27773675  0.41623746  0.29906876    -0.38500
O1294       O  0.23918127  0.44107192  0.29917298    -0.34700
O1295       O  0.13597373  0.24789724  0.25617984    -0.36100
O1296       O  0.09552171  0.27040784  0.25764702    -0.40400
C1297       C  0.33832053  0.18103504  0.72988414    -0.14100
C1298       C  0.37031223  0.17914000  0.73722644     0.16300
C1299       C  0.39957082  0.18169745  0.72512365     0.02600
C1300       C  0.39587081  0.18506971  0.70598991    -0.12600
C1301       C  0.36312582  0.18565510  0.69833144    -0.03700
C1302       C  0.33447522  0.18440117  0.71071599     0.01800
C1303       C  0.37125965  0.17263010  0.75744006     0.08700
N1304       N  0.43218200  0.17877824  0.73186830     0.65000
H1305       H  0.41843665  0.18587474  0.69708279     0.17900
N1306       N  0.30101831  0.18604137  0.70425167     0.75500
H1307       H  0.31578921  0.17937700  0.73913606     0.09400
C1308       C  0.39719801  0.20275736  0.76942775     0.03100
C1309       C  0.39479755  0.19629684  0.78860545    -0.05600
C1310       C  0.36609098  0.16039051  0.79640469    -0.24000
C1311       C  0.34041746  0.12997667  0.78419173     0.12400
C1312       C  0.34346572  0.13635012  0.76496436    -0.13100
N1313       N  0.42393549  0.24112203  0.76254054     0.64100
H1314       H  0.41444374  0.22052212  0.79745174     0.11900
N1315       N  0.31021552  0.09286705  0.79093449     0.60700
H1316       H  0.32318603  0.11306532  0.75583026     0.08100
O1317       O  0.26847859  0.15456441  0.70284985    -0.40800
O1318       O  0.30147469  0.21829874  0.70494624    -0.39900
O1319       O  0.42882663  0.14529786  0.73337351    -0.39900
O1320       O  0.46609469  0.20874240  0.73149585    -0.37600
O1321       O  0.27531466  0.08616503  0.79166507    -0.38500
O1322       O  0.31646371  0.06443240  0.79162339    -0.34700
O1323       O  0.41290260  0.26615348  0.76166232    -0.36100
O1324       O  0.46020977  0.25267607  0.76211174    -0.40400
C1325       C  0.64552601  0.19445855  0.62977992    -0.14100
C1326       C  0.61291677  0.15778774  0.62543424     0.16300
C1327       C  0.61840968  0.12564754  0.62202374     0.02600
C1328       C  0.65621988  0.13096949  0.62232603    -0.12600
C1329       C  0.68907993  0.16791556  0.62603343    -0.03700
C1330       C  0.68345575  0.19971936  0.63023654     0.01800
C1331       C  0.57409992  0.15452851  0.62299694     0.08700
N1332       N  0.58598094  0.08748444  0.61806310     0.65000
H1333       H  0.65997623  0.10604887  0.61932409     0.17900
N1334       N  0.71580834  0.23786758  0.63411922     0.75500
H1335       H  0.64176831  0.21958851  0.63205010     0.09400
C1336       C  0.55645572  0.16442853  0.63735863     0.03100
C1337       C  0.52087888  0.16317417  0.63419843    -0.05600
C1338       C  0.50215909  0.15258517  0.61676603    -0.24000
C1339       C  0.52011090  0.14274030  0.60232907     0.12400
C1340       C  0.55573823  0.14382520  0.60559552    -0.13100
N1341       N  0.57411793  0.17559242  0.65530916     0.64100
H1342       H  0.50800975  0.17069430  0.64563278     0.11900
N1343       N  0.50352566  0.13281690  0.58413999     0.60700
H1344       H  0.56971488  0.13727986  0.59428532     0.08100
O1345       O  0.73253882  0.26152429  0.62091348    -0.40800
O1346       O  0.72007247  0.25099669  0.65043376    -0.39900
O1347       O  0.57998358  0.07512724  0.60155336    -0.39900
O1348       O  0.57028778  0.06323327  0.63114432    -0.37600
O1349       O  0.51551713  0.15914740  0.57185421    -0.38500
O1350       O  0.48455500  0.09720239  0.57932868    -0.34700
O1351       O  0.59318191  0.21151910  0.65958735    -0.36100
O1352       O  0.56264913  0.15015158  0.66799844    -0.40400
C1353       C  0.05629565  0.15122454  0.59366139    -0.14100
C1354       C  0.07634870  0.15626096  0.61045982     0.16300
C1355       C  0.06336558  0.16710108  0.62645042     0.02600
C1356       C  0.03095817  0.17248362  0.62543091    -0.12600
C1357       C  0.01073283  0.16756996  0.60867514    -0.03700
C1358       C  0.02383178  0.15686890  0.59258805     0.01800
C1359       C  0.11296881  0.15408991  0.61069100     0.08700
N1360       N  0.08260970  0.17260078  0.64393394     0.65000
H1361       H  0.02131522  0.18010395  0.63805188     0.17900
N1362       N  0.00631651  0.15403553  0.57486271     0.75500
H1363       H  0.06689953  0.14448993  0.58110482     0.09400
C1364       C  0.11407529  0.12076241  0.60428436     0.03100
C1365       C  0.14958347  0.12052904  0.60446817    -0.05600
C1366       C  0.18438465  0.15308641  0.61093071    -0.24000
C1367       C  0.18343256  0.18685752  0.61681133     0.12400
C1368       C  0.14796129  0.18701812  0.61663082    -0.13100
N1369       N  0.07932494  0.08661310  0.59791330     0.64100
H1370       H  0.14968764  0.09431378  0.59994029     0.11900
N1371       N  0.21849496  0.22198590  0.62206611     0.60700
H1372       H  0.14795550  0.21348259  0.62077578     0.08100
O1373       O  0.98720275  0.12095089  0.56709556    -0.40800
O1374       O  0.01792592  0.18470699  0.56527700    -0.39900
O1375       O  0.10191470  0.20674847  0.65065835    -0.39900
O1376       O  0.07253063  0.14337569  0.65437714    -0.37600
O1377       O  0.23862398  0.24672460  0.60973785    -0.38500
O1378       O  0.22396390  0.23229509  0.63888319    -0.34700
O1379       O  0.07457396  0.07947729  0.58074383    -0.36100
O1380       O  0.05876620  0.05964014  0.60927524    -0.40400
C1381       C  0.29822994  0.00408708  0.51834523    -0.14100
C1382       C  0.27266081  0.00791629  0.50609209     0.16300
C1383       C  0.25878465  0.03365077  0.51081673     0.02600
C1384       C  0.27010951  0.05436972  0.52760720    -0.12600
C1385       C  0.29589007  0.05075742  0.53985918    -0.03700
C1386       C  0.31024628  0.02540178  0.53497198     0.01800
C1387       C  0.25849847  0.98249917  0.48928845     0.08700
N1388       N  0.23429233  0.04020961  0.49843699     0.65000
H1389       H  0.25923654  0.07410905  0.53087462     0.17900
N1390       N  0.33568849  0.01952855  0.54701251     0.75500
H1391       H  0.30814461  0.98352198  0.51525415     0.09400
C1392       C  0.28472765  0.98132109  0.47627418     0.03100
C1393       C  0.27023116  0.95500005  0.46133305    -0.05600
C1394       C  0.22967828  0.92967472  0.45882556    -0.24000
C1395       C  0.20343592  0.93072403  0.47197279     0.12400
C1396       C  0.21803852  0.95686002  0.48698504    -0.13100
N1397       N  0.32610837  0.00781533  0.47755662     0.64100
H1398       H  0.29092870  0.95532715  0.45129797     0.11900
N1399       N  0.16198561  0.90449247  0.47079288     0.60700
H1400       H  0.19757180  0.95638021  0.49719624     0.08100
O1401       O  0.37140059  0.03395092  0.54266277    -0.40800
O1402       O  0.32090643  0.99265493  0.55903157    -0.39900
O1403       O  0.19819073  0.02532453  0.50206825    -0.39900
O1404       O  0.25008291  0.06814428  0.48699031    -0.37600
O1405       O  0.14734659  0.87110299  0.47827833    -0.38500
O1406       O  0.13982917  0.91801668  0.46678487    -0.34700
O1407       O  0.34799334  0.99562537  0.48385350    -0.36100
O1408       O  0.34124285  0.03930709  0.46835829    -0.40400
C1409       C  0.16874034  0.04730753  0.40992682    -0.14100
C1410       C  0.16341747  0.06209222  0.39312859     0.16300
C1411       C  0.16441089  0.04424485  0.37635689     0.02600
C1412       C  0.17145502  0.01281534  0.37647881    -0.12600
C1413       C  0.17664835  0.99771457  0.39317365    -0.03700
C1414       C  0.17516126  0.01518886  0.41008982     0.01800
C1415       C  0.16063507  0.09834619  0.39283512     0.08700
N1416       N  0.15674825  0.05685188  0.35907911     0.65000
H1417       H  0.17150635  0.99923431  0.36339425     0.17900
N1418       N  0.18181622  0.00186248  0.42741356     0.75500
H1419       H  0.16876514  0.06127028  0.42289533     0.09400
C1420       C  0.12760549  0.09942993  0.39966289     0.03100
C1421       C  0.12534234  0.13373487  0.39770210    -0.05600
C1422       C  0.15540656  0.16720575  0.38880527    -0.24000
C1423       C  0.18906939  0.16632004  0.38259149     0.12400
C1424       C  0.19135438  0.13216855  0.38469441    -0.13100
N1425       N  0.09526412  0.06540966  0.40772283     0.64100
H1426       H  0.09925441  0.13368120  0.40261117     0.11900
N1427       N  0.22161296  0.19997688  0.37442107     0.60700
H1428       H  0.21721338  0.13187279  0.37969528     0.08100
O1429       O  0.15295572  0.98034047  0.43770104    -0.40800
O1430       O  0.21614710  0.01802635  0.43403233    -0.39900
O1431       O  0.18473716  0.07684341  0.34807169    -0.39900
O1432       O  0.12177445  0.04186387  0.35341054    -0.37600
O1433       O  0.25119317  0.22167505  0.38430413    -0.38500
O1434       O  0.22489973  0.20206994  0.35698995    -0.34700
O1435       O  0.09081350  0.06355571  0.42509868    -0.36100
O1436       O  0.06702663  0.04209571  0.39752598    -0.40400
C1437       C  0.20194325  0.63488109  0.37126446    -0.14100
C1438       C  0.16606698  0.59929454  0.37215465     0.16300
C1439       C  0.13069124  0.60046075  0.37292982     0.02600
C1440       C  0.13194348  0.63661334  0.37354970    -0.12600
C1441       C  0.16781406  0.67201107  0.37289538    -0.03700
C1442       C  0.20307026  0.67103157  0.37136883     0.01800
C1443       C  0.16625601  0.56175761  0.37441364     0.08700
N1444       N  0.09321067  0.56522780  0.37317060     0.65000
H1445       H  0.10465349  0.63704374  0.37459358     0.17900
N1446       N  0.24038764  0.70642089  0.37146861     0.75500
H1447       H  0.22943045  0.63480178  0.37136949     0.09400
C1448       C  0.18763226  0.55072258  0.36252575     0.03100
C1449       C  0.18689222  0.51518619  0.36540740    -0.05600
C1450       C  0.16562058  0.49003070  0.38016807    -0.24000
C1451       C  0.14598833  0.50227003  0.39264591     0.12400
C1452       C  0.14648829  0.53763228  0.38961629    -0.13100
N1453       N  0.20991663  0.57487309  0.34729792     0.64100
H1454       H  0.20291169  0.50718551  0.35579521     0.11900
N1455       N  0.12537576  0.47947458  0.40851205     0.60700
H1456       H  0.13180074  0.54665272  0.39951074     0.08100
O1457       O  0.25744341  0.72102983  0.35628659    -0.40800
O1458       O  0.25966889  0.71785576  0.38639413    -0.39900
O1459       O  0.07276756  0.55574459  0.38777726    -0.39900
O1460       O  0.07701181  0.54935022  0.35800095    -0.37600
O1461       O  0.14368520  0.48493835  0.42360116    -0.38500
O1462       O  0.08828547  0.46148904  0.40864313    -0.34700
O1463       O  0.24696784  0.59350639  0.34829887    -0.36100
O1464       O  0.19371221  0.56960495  0.33163598    -0.40400
C1465       C  0.13431414  0.76999095  0.26906329    -0.14100
C1466       C  0.16419234  0.80430617  0.26071027     0.16300
C1467       C  0.18925919  0.83650169  0.27200859     0.02600
C1468       C  0.18464847  0.83383134  0.29125615    -0.12600
C1469       C  0.15461751  0.79989408  0.29963474    -0.03700
C1470       C  0.12906543  0.76774101  0.28842433     0.01800
C1471       C  0.16698693  0.80775460  0.24020012     0.08700
N1472       N  0.21942618  0.87230288  0.26410514     0.65000
H1473       H  0.20449130  0.85872751  0.29975301     0.17900
N1474       N  0.09815407  0.73262491  0.29646034     0.75500
H1475       H  0.11443456  0.74529815  0.26049392     0.09400
C1476       C  0.17787442  0.78517322  0.22920385     0.03100
C1477       C  0.18157158  0.79075618  0.20993521    -0.05600
C1478       C  0.17416944  0.81839045  0.20114570    -0.24000
C1479       C  0.16193265  0.84001722  0.21231176     0.12400
C1480       C  0.15877456  0.83465624  0.23156194    -0.13100
N1481       N  0.18616629  0.75709742  0.23740490     0.64100
H1482       H  0.19048049  0.77330663  0.20186744     0.11900
N1483       N  0.15138630  0.86674345  0.20445569     0.60700
H1484       H  0.14944156  0.85149448  0.23986560     0.08100
O1485       O  0.10243938  0.70311327  0.29827802    -0.40800
O1486       O  0.06429471  0.72846026  0.29796305    -0.39900
O1487       O  0.21436197  0.90145542  0.26300320    -0.39900
O1488       O  0.25347436  0.87725763  0.26198916    -0.37600
O1489       O  0.11559333  0.85520851  0.20144746    -0.38500
O1490       O  0.17576804  0.90309907  0.20498705    -0.34700
O1491       O  0.16073356  0.72106397  0.23655260    -0.36100
O1492       O  0.22119229  0.76720451  0.24148143    -0.40400
C1493       C  0.79246522  0.61702490  0.72549170    -0.14100
C1494       C  0.82658392  0.63307711  0.73631684     0.16300
C1495       C  0.86344014  0.64909618  0.72747782     0.02600
C1496       C  0.86574938  0.65072276  0.70808282    -0.12600
C1497       C  0.83166770  0.63516507  0.69713267    -0.03700
C1498       C  0.79455593  0.61729691  0.70608455     0.01800
C1499       C  0.82303878  0.63142261  0.75680562     0.08700
N1500       N  0.89882402  0.66383675  0.73801125     0.65000
H1501       H  0.89441568  0.66381946  0.70155200     0.17900
N1502       N  0.75864031  0.59982145  0.69581211     0.75500
H1503       H  0.76394145  0.60384015  0.73217393     0.09400
C1504       C  0.80866128  0.65269071  0.76652151     0.03100
C1505       C  0.80638938  0.65081470  0.78591840    -0.05600
C1506       C  0.81772892  0.62754645  0.79605985    -0.24000
C1507       C  0.83002754  0.60452252  0.78607864     0.12400
C1508       C  0.83280401  0.60694596  0.76669021    -0.13100
N1509       N  0.79720422  0.67714060  0.75694399     0.64100
H1510       H  0.79624365  0.66830470  0.79308292     0.11900
N1511       N  0.84043827  0.57890994  0.79523952     0.60700
H1512       H  0.84263532  0.58946227  0.75927265     0.08100
O1513       O  0.73689955  0.56294856  0.69593984    -0.40800
O1514       O  0.74425529  0.62077743  0.69097413    -0.39900
O1515       O  0.91327039  0.64200584  0.74081563    -0.39900
O1516       O  0.91976642  0.70030963  0.74073358    -0.37600
O1517       O  0.81566087  0.54265578  0.79575961    -0.38500
O1518       O  0.87629638  0.59022139  0.79786061    -0.34700
O1519       O  0.76135405  0.66736885  0.75637434    -0.36100
O1520       O  0.82297633  0.71169575  0.75262088    -0.40400
C1521       C  0.55968784  0.36563180  0.63277570    -0.14100
C1522       C  0.56470643  0.39203469  0.61854238     0.16300
C1523       C  0.53479301  0.38146742  0.60538783     0.02600
C1524       C  0.50066777  0.34487916  0.60641421    -0.12600
C1525       C  0.49535356  0.31747339  0.62032530    -0.03700
C1526       C  0.52552101  0.32842030  0.63373043     0.01800
C1527       C  0.60201532  0.42972219  0.61677436     0.08700
N1528       N  0.53878118  0.40764382  0.59074411     0.65000
H1529       H  0.47841587  0.33793707  0.59591638     0.17900
N1530       N  0.52279757  0.30197999  0.64798316     0.75500
H1531       H  0.58287618  0.37353976  0.64288513     0.09400
C1532       C  0.61121922  0.46133220  0.62883868     0.03100
C1533       C  0.64602355  0.49706471  0.62629256    -0.05600
C1534       C  0.67188578  0.50186036  0.61182377    -0.24000
C1535       C  0.66340970  0.47005421  0.60008388     0.12400
C1536       C  0.62832920  0.43432205  0.60247623    -0.13100
N1537       N  0.58522826  0.45781651  0.64351315     0.64100
H1538       H  0.65292282  0.52125952  0.63565558     0.11900
N1539       N  0.69145457  0.47294793  0.58662829     0.60700
H1540       H  0.62184061  0.40986798  0.59337438     0.08100
O1541       O  0.51280861  0.30581684  0.66414050    -0.40800
O1542       O  0.53872293  0.28134977  0.64553570    -0.39900
O1543       O  0.54540852  0.40072548  0.57444821    -0.39900
O1544       O  0.52795038  0.43249621  0.59336293    -0.37600
O1545       O  0.68958545  0.48305474  0.57023337    -0.38500
O1546       O  0.72150118  0.47176366  0.59181747    -0.34700
O1547       O  0.59389875  0.45448255  0.66000334    -0.36100
O1548       O  0.55926101  0.46703151  0.64055019    -0.40400
C1549       C  0.06240533  0.84675451  0.61678256    -0.14100
C1550       C  0.06619672  0.88207302  0.61029432     0.16300
C1551       C  0.03243030  0.88272972  0.60424511     0.02600
C1552       C  0.99581003  0.84845622  0.60486071    -0.12600
C1553       C  0.99179555  0.81350334  0.61198553    -0.03700
C1554       C  0.02557156  0.81278181  0.61804094     0.01800
C1555       C  0.10565125  0.91762317  0.60969666     0.08700
N1556       N  0.03439995  0.91835707  0.59842615     0.65000
H1557       H  0.97008884  0.84964934  0.60042078     0.17900
N1558       N  0.02321189  0.77784448  0.62524128     0.75500
H1559       H  0.08823005  0.84549268  0.62091234     0.09400
C1560       C  0.12994755  0.93060015  0.62553419     0.03100
C1561       C  0.16724990  0.96377190  0.62446282    -0.05600
C1562       C  0.18136191  0.98465126  0.60780877    -0.24000
C1563       C  0.15759925  0.97089361  0.59174423     0.12400
C1564       C  0.12000023  0.93770048  0.59286304    -0.13100
N1565       N  0.11690677  0.91100945  0.64297389     0.64100
H1566       H  0.18482860  0.97382583  0.63698439     0.11900
N1567       N  0.17184974  0.98884945  0.57405078     0.60700
H1568       H  0.10228971  0.92698196  0.58040783     0.08100
O1569       O  0.02605663  0.77469440  0.64251380    -0.40800
O1570       O  0.02788458  0.75529371  0.61442052    -0.39900
O1571       O  0.02998569  0.92318197  0.58148020    -0.39900
O1572       O  0.03041307  0.93957174  0.61036431    -0.37600
O1573       O  0.19124433  0.97802240  0.56419418    -0.38500
O1574       O  0.15778925  0.00821293  0.56669183    -0.34700
O1575       O  0.13150168  0.89101875  0.64902234    -0.36100
O1576       O  0.09853904  0.92105911  0.65396725    -0.40400
C1577       C  0.88115858  0.47642251  0.61684731    -0.14100
C1578       C  0.84588606  0.44063820  0.61830208     0.16300
C1579       C  0.81041411  0.44067952  0.62126870     0.02600
C1580       C  0.81080280  0.47631892  0.62239534    -0.12600
C1581       C  0.84599898  0.51211973  0.62044638    -0.03700
C1582       C  0.88155124  0.51202643  0.61780509     0.01800
C1583       C  0.84731868  0.40387220  0.61810707     0.08700
N1584       N  0.77359271  0.40486688  0.62243654     0.65000
H1585       H  0.78319783  0.47591271  0.62407838     0.17900
N1586       N  0.91846928  0.54776699  0.61673965     0.75500
H1587       H  0.90876131  0.47678255  0.61539832     0.09400
C1588       C  0.86373154  0.39386442  0.60315017     0.03100
C1589       C  0.86538709  0.35929136  0.60384601    -0.05600
C1590       C  0.85253522  0.33491446  0.61958657    -0.24000
C1591       C  0.83885747  0.34674626  0.63509664     0.12400
C1592       C  0.83552547  0.38038984  0.63401693    -0.13100
N1593       N  0.87951970  0.41872708  0.58728419     0.64100
H1594       H  0.87700136  0.35171802  0.59190444     0.11900
N1595       N  0.83141881  0.32716145  0.65255095     0.60700
H1596       H  0.82539463  0.38927916  0.64606758     0.08100
O1597       O  0.93830438  0.55610124  0.60196930    -0.40800
O1598       O  0.93494121  0.56573320  0.63150658    -0.39900
O1599       O  0.75923764  0.39128103  0.63819024    -0.39900
O1600       O  0.75145716  0.39302794  0.60839372    -0.37600
O1601       O  0.85856982  0.33987383  0.66446801    -0.38500
O1602       O  0.79641543  0.30521009  0.65774327    -0.34700
O1603       O  0.91632244  0.44037035  0.58585238    -0.36100
O1604       O  0.85844286  0.41150947  0.57300486    -0.40400
C1605       C  0.87382870  0.97210158  0.60185949    -0.14100
C1606       C  0.83867694  0.93893454  0.60747822     0.16300
C1607       C  0.80734935  0.94374627  0.61375952     0.02600
C1608       C  0.81198843  0.98124667  0.61480992    -0.12600
C1609       C  0.84715111  0.01443993  0.60930011    -0.03700
C1610       C  0.87812486  0.00959871  0.60245323     0.01800
C1611       C  0.83603439  0.90001809  0.60798416     0.08700
N1612       N  0.77030987  0.91075472  0.61879547     0.65000
H1613       H  0.78759277  0.98431685  0.61970819     0.17900
N1614       N  0.91455722  0.04243714  0.59663795     0.75500
H1615       H  0.89854282  0.96910100  0.59748272     0.09400
C1616       C  0.84480933  0.88420609  0.59235735     0.03100
C1617       C  0.84182456  0.84735067  0.59351325    -0.05600
C1618       C  0.83004643  0.82549108  0.61002779    -0.24000
C1619       C  0.82245354  0.84194053  0.62583934     0.12400
C1620       C  0.82574770  0.87892329  0.62468430    -0.13100
N1621       N  0.85564584  0.90458729  0.57504419     0.64100
H1622       H  0.84800690  0.83544668  0.58123793     0.11900
N1623       N  0.81292806  0.82238054  0.64337039     0.60700
H1624       H  0.82072897  0.89149290  0.63704001     0.08100
O1625       O  0.92283863  0.04729228  0.57958467    -0.40800
O1626       O  0.94126881  0.06121496  0.60842870    -0.39900
O1627       O  0.76016196  0.90523232  0.63563189    -0.39900
O1628       O  0.74469365  0.89310448  0.60640950    -0.37600
O1629       O  0.84007677  0.83023990  0.65487915    -0.38500
O1630       O  0.77772649  0.80511516  0.64889142    -0.34700
O1631       O  0.89103493  0.92107574  0.56982445    -0.36100
O1632       O  0.82921922  0.89836770  0.56338414    -0.40400
C1633       C  0.65790431  0.79155391  0.23077232    -0.14100
C1634       C  0.63402318  0.80499746  0.23846764     0.16300
C1635       C  0.61396102  0.81727862  0.22659535     0.02600
C1636       C  0.61808683  0.81617813  0.20735789    -0.12600
C1637       C  0.64274582  0.80367703  0.19941335    -0.03700
C1638       C  0.66274110  0.79109687  0.21145539     0.01800
C1639       C  0.63323792  0.80944253  0.25886536     0.08700
N1640       N  0.59006081  0.83198759  0.23389614     0.65000
H1641       H  0.60272866  0.82651291  0.19863068     0.17900
N1642       N  0.68823379  0.77804005  0.20444310     0.75500
H1643       H  0.67377500  0.78239111  0.23985257     0.09400
C1644       C  0.60972343  0.77742163  0.27048172     0.03100
C1645       C  0.61164252  0.78254329  0.28977149    -0.05600
C1646       C  0.63709414  0.81926292  0.29797977    -0.24000
C1647       C  0.66031495  0.85148863  0.28613292     0.12400
C1648       C  0.65798536  0.84626564  0.26682146    -0.13100
N1649       N  0.58405532  0.73937323  0.26293026     0.64100
H1650       H  0.59369805  0.75714341  0.29835173     0.11900
N1651       N  0.68672762  0.88967811  0.29332458     0.60700
H1652       H  0.67624596  0.87106646  0.25795023     0.08100
O1653       O  0.72483312  0.80160897  0.20417088    -0.40800
O1654       O  0.67554259  0.74169078  0.20291079    -0.39900
O1655       O  0.60453765  0.86853714  0.23586669    -0.39900
O1656       O  0.55325852  0.80974277  0.23456592    -0.37600
O1657       O  0.72299438  0.90121683  0.29395587    -0.38500
O1658       O  0.67564484  0.91466113  0.29429575    -0.34700
O1659       O  0.59287973  0.71280290  0.26453346    -0.36100
O1660       O  0.54932445  0.73007752  0.25867113    -0.40400
C1661       C  0.70626210  0.71634745  0.48163349    -0.14100
C1662       C  0.73980971  0.74619215  0.49050011     0.16300
C1663       C  0.75981894  0.78368398  0.48217545     0.02600
C1664       C  0.74574685  0.79070041  0.46564257    -0.12600
C1665       C  0.71167192  0.76113930  0.45690558    -0.03700
C1666       C  0.69188582  0.72339290  0.46515577     0.01800
C1667       C  0.75436617  0.73684131  0.50778737     0.08700
N1668       N  0.79406583  0.81540421  0.49046890     0.65000
H1669       H  0.76163300  0.81994603  0.45977036     0.17900
N1670       N  0.65779235  0.69145758  0.45687082     0.75500
H1671       H  0.69138705  0.68694475  0.48734374     0.09400
C1672       C  0.72890579  0.71682630  0.52277197     0.03100
C1673       C  0.74261841  0.70511455  0.53800132    -0.05600
C1674       C  0.78180723  0.71384535  0.53903609    -0.24000
C1675       C  0.80761381  0.73470958  0.52432872     0.12400
C1676       C  0.79358629  0.74539989  0.50880254    -0.13100
N1677       N  0.68928404  0.70906381  0.52302236     0.64100
H1678       H  0.72260835  0.68982417  0.54934674     0.11900
N1679       N  0.84752161  0.74340009  0.52441472     0.60700
H1680       H  0.81325062  0.75932982  0.49721214     0.08100
O1681       O  0.62423734  0.68225775  0.46307897    -0.40800
O1682       O  0.66158445  0.66728947  0.44682594    -0.39900
O1683       O  0.82721487  0.82664845  0.48316177    -0.39900
O1684       O  0.79013759  0.83806859  0.50152416    -0.37600
O1685       O  0.85546607  0.71792477  0.51860115    -0.38500
O1686       O  0.87479138  0.77863020  0.52590853    -0.34700
O1687       O  0.66135614  0.67410745  0.52165295    -0.36100
O1688       O  0.68234812  0.73515271  0.52895564    -0.40400
C1689       C  0.91610364  0.11511978  0.38300732    -0.14100
C1690       C  0.92021382  0.08399651  0.38978117     0.16300
C1691       C  0.95670169  0.09189421  0.39704336     0.02600
C1692       C  0.98832791  0.13048998  0.39731818    -0.12600
C1693       C  0.98485324  0.16174344  0.38996712    -0.03700
C1694       C  0.94792994  0.15371069  0.38296776     0.01800
C1695       C  0.88658939  0.04342175  0.38812442     0.08700
N1696       N  0.96312146  0.06081779  0.40278934     0.65000
H1697       H  0.01641155  0.13557331  0.40244753     0.17900
N1698       N  0.94209565  0.18421889  0.37578293     0.75500
H1699       H  0.88807813  0.10927561  0.37742443     0.09400
C1700       C  0.86465417  0.02207840  0.40368321     0.03100
C1701       C  0.83173790  0.98471235  0.40131515    -0.05600
C1702       C  0.81967905  0.96792821  0.38359659    -0.24000
C1703       C  0.84224928  0.98911461  0.36803290     0.12400
C1704       C  0.87524142  0.02657527  0.37043991    -0.13100
N1705       N  0.87404079  0.03865960  0.42188152     0.64100
H1706       H  0.81477823  0.96922965  0.41345619     0.11900
N1707       N  0.83313873  0.97267238  0.34980595     0.60700
H1708       H  0.89219285  0.04266966  0.35840508     0.08100
O1709       O  0.92846666  0.20026211  0.38623766    -0.40800
O1710       O  0.94261617  0.18915385  0.35846922    -0.39900
O1711       O  0.97199914  0.04328045  0.39074515    -0.39900
O1712       O  0.97003229  0.05813606  0.41965133    -0.37600
O1713       O  0.81802890  0.98538626  0.33829565    -0.38500
O1714       O  0.84944899  0.95411413  0.34394349    -0.34700
O1715       O  0.85598465  0.05509031  0.42823631    -0.36100
O1716       O  0.89125203  0.02753654  0.43300348    -0.40400
C1717       C  0.44934419  0.58280414  0.39259485    -0.14100
C1718       C  0.43535473  0.56924497  0.37468333     0.16300
C1719       C  0.45738675  0.59073711  0.35927929     0.02600
C1720       C  0.49200347  0.62669064  0.36190488    -0.12600
C1721       C  0.50576470  0.64143790  0.37986570    -0.03700
C1722       C  0.48439587  0.61844061  0.39534280     0.01800
C1723       C  0.39599437  0.53448369  0.37221756     0.08700
N1724       N  0.44469662  0.57617831  0.34090550     0.65000
H1725       H  0.50824440  0.64306028  0.34978823     0.17900
N1726       N  0.49656635  0.63157445  0.41392193     0.75500
H1727       H  0.43230038  0.56621696  0.40451253     0.09400
C1728       C  0.38951886  0.49638700  0.37488637     0.03100
C1729       C  0.35142183  0.46433416  0.37364831    -0.05600
C1730       C  0.31924068  0.46952449  0.36981493    -0.24000
C1731       C  0.32606442  0.50770096  0.36624108     0.12400
C1732       C  0.36437380  0.53982507  0.36748987    -0.13100
N1733       N  0.42131765  0.48985779  0.37898695     0.64100
H1734       H  0.34684508  0.43519055  0.37618957     0.11900
N1735       N  0.29436788  0.51468949  0.36259233     0.60700
H1736       H  0.36934098  0.56921799  0.36532109     0.08100
O1737       O  0.51230190  0.61617648  0.42337543    -0.40800
O1738       O  0.48341074  0.65100475  0.42205605    -0.39900
O1739       O  0.42662017  0.58903151  0.33141697    -0.39900
O1740       O  0.44576467  0.54627401  0.33540656    -0.37600
O1741       O  0.28749450  0.52025194  0.34611563    -0.38500
O1742       O  0.27929987  0.52366784  0.37580982    -0.34700
O1743       O  0.42916829  0.48680421  0.39565675    -0.36100
O1744       O  0.43598034  0.47939473  0.36617348    -0.40400
C1745       C  0.89801039  0.85446776  0.39600567    -0.14100
C1746       C  0.90275131  0.82396917  0.38897377     0.16300
C1747       C  0.86968090  0.78923042  0.38267402     0.02600
C1748       C  0.83273257  0.78612370  0.38284854    -0.12600
C1749       C  0.82777117  0.81686257  0.38954025    -0.03700
C1750       C  0.86096426  0.85126675  0.39646354     0.01800
C1751       C  0.94252113  0.82910563  0.38839841     0.08700
N1752       N  0.87279680  0.75625609  0.37673416     0.65000
H1753       H  0.80766165  0.75917160  0.37789863     0.17900
N1754       N  0.85807731  0.88375610  0.40343816     0.75500
H1755       H  0.92337453  0.88115344  0.40099127     0.09400
C1756       C  0.96151075  0.83198517  0.37144325     0.03100
C1757       C  0.99865153  0.83553520  0.37143750    -0.05600
C1758       C  0.01808909  0.83758201  0.38811897    -0.24000
C1759       C  0.99966709  0.83664248  0.40513333     0.12400
C1760       C  0.96199278  0.83204570  0.40509630    -0.13100
N1761       N  0.94445237  0.83353773  0.35417788     0.64100
H1762       H  0.01275262  0.83761564  0.35822708     0.11900
N1763       N  0.01810257  0.83924174  0.42255866     0.60700
H1764       H  0.94769655  0.83047455  0.41818972     0.08100
O1765       O  0.87026132  0.91419184  0.39360891    -0.40800
O1766       O  0.85286258  0.88576930  0.42059019    -0.39900
O1767       O  0.87031896  0.73168900  0.38866745    -0.39900
O1768       O  0.86727106  0.74635865  0.35986597    -0.37600
O1769       O  0.01025088  0.80812265  0.43104166    -0.38500
O1770       O  0.03407860  0.87141289  0.43126575    -0.34700
O1771       O  0.94500167  0.86478552  0.34968934    -0.36100
O1772       O  0.93761220  0.80802301  0.34189489    -0.40400
C1773       C  0.45924293  0.83403958  0.38733377    -0.14100
C1774       C  0.42728085  0.80505333  0.37746376     0.16300
C1775       C  0.43254445  0.77843290  0.36640207     0.02600
C1776       C  0.46912040  0.78014565  0.36616046    -0.12600
C1777       C  0.50090928  0.80840768  0.37667415    -0.03700
C1778       C  0.49564382  0.83611677  0.38707227     0.01800
C1779       C  0.39006540  0.80593083  0.37796265     0.08700
N1780       N  0.40093362  0.74912922  0.35562133     0.65000
H1781       H  0.47233755  0.75877389  0.35801668     0.17900
N1782       N  0.52714597  0.86751967  0.39706960     0.75500
H1783       H  0.45617198  0.85597117  0.39508002     0.09400
C1784       C  0.37156318  0.80463788  0.39493738     0.03100
C1785       C  0.34055418  0.81238158  0.39537160    -0.05600
C1786       C  0.32729786  0.82164452  0.37911951    -0.24000
C1787       C  0.34552595  0.82225354  0.36201245     0.12400
C1788       C  0.37643710  0.81425279  0.36164293    -0.13100
N1789       N  0.38389025  0.79539315  0.41190283     0.64100
H1790       H  0.32654158  0.81070199  0.40855814     0.11900
N1791       N  0.33466937  0.83293935  0.34499793     0.60700
H1792       H  0.39129084  0.81666831  0.34862622     0.08100
O1793       O  0.52825539  0.86550089  0.41451190    -0.40800
O1794       O  0.54743794  0.90031586  0.38921272    -0.39900
O1795       O  0.40082916  0.75334254  0.33827449    -0.39900
O1796       O  0.37825971  0.71599593  0.36271159    -0.37600
O1797       O  0.32288587  0.80911750  0.33157138    -0.38500
O1798       O  0.34520194  0.86848011  0.34207158    -0.34700
O1799       O  0.40480250  0.82266598  0.42309374    -0.36100
O1800       O  0.36628023  0.76036225  0.41758226    -0.40400
loop_ 
_geom_bond_atom_site_label_1 
_geom_bond_atom_site_label_2 
_geom_bond_distance 
_geom_bond_site_symmetry_2 
_ccdc_geom_bond_type 
Zr1           O2   2.438       .  S
Zr1           O3   2.400       .  S
Zr1           O4   2.431       .  S
Zr1           O7   2.421       .  S
Zr1           O9   2.380       .  S
Zr1          O10   2.381       .  S
Zr1          O11   2.392       .  S
Zr1          O12   2.392       .  S
O2           H58   0.990       .  S
O2           H66   0.990       .  S
O3           C23   1.278       .  A
O4           C25   1.286       .  A
O5          Zr15   2.453       .  S
O5           C24   1.288       .  A
O6          Zr14   2.435       .  S
O6           C25   1.285       .  A
O7           C24   1.285       .  A
O8          Zr16   2.442       .  S
O8           C23   1.287       .  A
O9          Zr14   2.391       .  S
O9          Zr16   2.365       .  S
O10         Zr15   2.385       .  S
O10         Zr16   2.367       .  S
O10          H45   0.964       .  S
O11         Zr14   2.403       .  S
O11         Zr31   2.391       .  S
O11          H48   0.966       .  S
O12         Zr15   2.395       .  S
O12         Zr31   2.385       .  S
Zr13         O38   2.443       .  S
Zr13         O32   2.464       .  S
Zr13         O40   2.442       .  S
Zr13         O28   2.439       .  S
Zr13         O19   2.402       .  S
Zr13         O20   2.417       .  S
Zr13         O21   2.381       .  S
Zr13         O22   2.383       .  S
Zr14         O33   2.437       .  S
Zr14         O26   2.435       .  S
Zr14         O27   2.435       .  S
Zr14         O20   2.400       .  S
Zr14         O21   2.398       .  S
Zr15         O17   2.435       .  S
Zr15         O39   2.435       .  S
Zr15         O41   2.439       .  S
Zr15         O19   2.390       .  S
Zr15         O22   2.399       .  S
Zr16         O42   2.435       .  S
Zr16         O43   2.435       .  S
Zr16         O18   2.436       .  S
Zr16         O19   2.390       .  S
Zr16         O20   2.408       .  S
O17          H54   0.990       .  S
O18          H49   0.990       .  S
O18          H63   0.990       .  S
O20          H46   0.967       .  S
O21         Zr31   2.384       .  S
O22         Zr31   2.390       .  S
O22          H47   0.965       .  S
C23        C1749   1.480       .  S
C24        C1702   1.486       .  S
C25        C1665   1.493       .  S
O26          H62   0.990       .  S
O27          C29   1.284       .  A
O28          C29   1.284       .  A
C29        C1721   1.490       .  S
O30         Zr31   2.434       .  S
O30          H59   0.990       .  S
Zr31         O34   2.436       .  S
Zr31         O35   2.438       .  S
Zr31         O36   2.387       .  S
O32          C37   1.289       .  A
O33          H50   0.989       .  S
O33          H65   0.990       .  S
O34          H51   0.990       .  S
O35          H55   0.990       .  S
O35          H64   0.990       .  S
O36          C37   1.274       .  A
C37        C1777   1.489       .  S
O38          H57   0.991       .  S
O38          H61   0.990       .  S
O39          H53   0.990       .  S
O39          H60   0.990       .  S
O40          C44   1.287       .  A
O41          C44   1.285       .  A
O42          H52   0.990       .  S
O43          H56   0.990       .  S
C44        C1646   1.496       .  S
Zr67         O68   2.439       .  S
Zr67         O69   2.425       .  S
Zr67         O70   2.441       .  S
Zr67         O73   2.425       .  S
Zr67         O75   2.381       .  S
Zr67         O76   2.385       .  S
Zr67         O77   2.400       .  S
Zr67         O78   2.390       .  S
O68         H124   0.990       .  S
O68         H132   0.990       .  S
O69          C89   1.284       .  A
O70          C91   1.285       .  A
O71         Zr81   2.423       .  S
O71          C90   1.283       .  A
O72         Zr80   2.435       .  S
O72          C91   1.286       .  A
O73          C90   1.285       .  A
O74         Zr82   2.431       .  S
O74          C89   1.283       .  A
O75         Zr80   2.396       .  S
O75         Zr82   2.370       .  S
O76         Zr81   2.391       .  S
O76         Zr82   2.379       .  S
O76         H111   0.964       .  S
O77         Zr80   2.395       .  S
O77         Zr97   2.398       .  S
O77         H114   0.966       .  S
O78         Zr81   2.391       .  S
O78         Zr97   2.372       .  S
Zr79        O104   2.442       .  S
Zr79         O98   2.445       .  S
Zr79        O106   2.432       .  S
Zr79         O94   2.407       .  S
Zr79         O85   2.390       .  S
Zr79         O86   2.417       .  S
Zr79         O87   2.381       .  S
Zr79         O88   2.379       .  S
Zr80         O99   2.435       .  S
Zr80         O92   2.435       .  S
Zr80         O93   2.442       .  S
Zr80         O86   2.400       .  S
Zr80         O87   2.392       .  S
Zr81         O83   2.435       .  S
Zr81        O105   2.440       .  S
Zr81        O107   2.443       .  S
Zr81         O85   2.378       .  S
Zr81         O88   2.387       .  S
Zr82        O108   2.435       .  S
Zr82        O109   2.434       .  S
Zr82         O84   2.437       .  S
Zr82         O85   2.387       .  S
Zr82         O86   2.405       .  S
O83         H120   0.990       .  S
O84         H115   0.990       .  S
O84         H129   0.990       .  S
O86         H112   0.970       .  S
O87         Zr97   2.383       .  S
O88         Zr97   2.395       .  S
O88         H113   0.965       .  S
C89        C1618   1.481       .  S
C90        C1553   1.472       .  S
C91        C1674   1.482       .  S
O92         H128   0.990       .  S
O93          C95   1.285       .  A
O94          C95   1.275       .  A
C95        C1534   1.466       .  S
O96         Zr97   2.436       .  S
O96         H125   0.990       .  S
Zr97        O100   2.435       .  S
Zr97        O101   2.437       .  S
Zr97        O102   2.395       .  S
O98         C103   1.285       .  A
O99         H116   0.990       .  S
O99         H131   0.990       .  S
O100        H117   0.990       .  S
O101        H121   0.990       .  S
O101        H130   0.990       .  S
O102        C103   1.277       .  A
C103       C1581   1.472       .  S
O104        H123   0.991       .  S
O104        H127   0.990       .  S
O105        H119   0.990       .  S
O105        H126   0.990       .  S
O106        C110   1.283       .  A
O107        C110   1.287       .  A
O108        H118   0.990       .  S
O109        H122   0.990       .  S
C110       C1497   1.485       .  S
Zr133       O134   2.435       .  S
Zr133       O135   2.432       .  S
Zr133       O136   2.426       .  S
Zr133       O139   2.424       .  S
Zr133       O141   2.379       .  S
Zr133       O142   2.383       .  S
Zr133       O143   2.401       .  S
Zr133       O144   2.399       .  S
O134        H190   0.989       .  S
O134        H198   0.990       .  S
O135        C155   1.283       .  A
O136        C157   1.283       .  A
O137       Zr147   2.426       .  S
O137        C156   1.285       .  A
O138       Zr146   2.450       .  S
O138        C157   1.289       .  A
O139        C156   1.283       .  A
O140       Zr148   2.441       .  S
O140        C155   1.287       .  A
O141       Zr146   2.388       .  S
O141       Zr148   2.367       .  S
O142       Zr147   2.390       .  S
O142       Zr148   2.375       .  S
O142        H177   0.966       .  S
O143       Zr146   2.401       .  S
O143       Zr163   2.400       .  S
O143        H180   0.968       .  S
O144       Zr147   2.394       .  S
O144       Zr163   2.391       .  S
Zr145       O170   2.442       .  S
Zr145       O164   2.436       .  S
Zr145       O172   2.434       .  S
Zr145       O160   2.408       .  S
Zr145       O151   2.395       .  S
Zr145       O152   2.414       .  S
Zr145       O153   2.379       .  S
Zr145       O154   2.379       .  S
Zr146       O165   2.435       .  S
Zr146       O158   2.435       .  S
Zr146       O159   2.450       .  S
Zr146       O152   2.395       .  S
Zr146       O153   2.394       .  S
Zr147       O149   2.434       .  S
Zr147       O171   2.439       .  S
Zr147       O173   2.439       .  S
Zr147       O151   2.391       .  S
Zr147       O154   2.397       .  S
Zr148       O174   2.436       .  S
Zr148       O175   2.438       .  S
Zr148       O150   2.438       .  S
Zr148       O151   2.398       .  S
Zr148       O152   2.403       .  S
O149        H186   0.990       .  S
O150        H181   0.990       .  S
O150        H195   0.990       .  S
O152        H178   0.961       .  S
O153       Zr163   2.373       .  S
O154       Zr163   2.389       .  S
O154        H179   0.969       .  S
C155       C1413   1.483       .  S
C156       C1758   1.480       .  S
C157       C1394   1.489       .  S
O158        H194   0.990       .  S
O159        C161   1.289       .  A
O160        C161   1.278       .  A
C161       C1786   1.486       .  S
O162       Zr163   2.435       .  S
O162        H191   0.990       .  S
Zr163       O166   2.435       .  S
Zr163       O167   2.438       .  S
Zr163       O168   2.417       .  S
O164        C169   1.282       .  A
O165        H182   0.990       .  S
O165        H197   0.990       .  S
O166        H183   0.990       .  S
O167        H187   0.990       .  S
O167        H196   0.990       .  S
O168        C169   1.281       .  A
C169       C1441   1.475       .  S
O170        H189   0.991       .  S
O170        H193   0.990       .  S
O171        H185   0.990       .  S
O171        H192   0.990       .  S
O172        C176   1.281       .  A
O173        C176   1.283       .  A
O174        H184   0.990       .  S
O175        H188   0.990       .  S
C176       C1469   1.474       .  S
Zr199       O200   2.438       .  S
Zr199       O201   2.415       .  S
Zr199       O202   2.441       .  S
Zr199       O205   2.439       .  S
Zr199       O207   2.377       .  S
Zr199       O208   2.387       .  S
Zr199       O209   2.399       .  S
Zr199       O210   2.393       .  S
O200        H256   0.990       .  S
O200        H264   0.990       .  S
O201        C221   1.280       .  A
O202        C223   1.287       .  A
O203       Zr213   2.424       .  S
O203        C222   1.284       .  A
O204       Zr212   2.432       .  S
O204        C223   1.284       .  A
O205        C222   1.288       .  A
O206       Zr214   2.430       .  S
O206        C221   1.284       .  A
O207       Zr212   2.386       .  S
O207       Zr214   2.363       .  S
O208       Zr213   2.394       .  S
O208       Zr214   2.376       .  S
O208        H243   0.964       .  S
O209       Zr212   2.400       .  S
O209       Zr229   2.397       .  S
O209        H246   0.967       .  S
O210       Zr213   2.395       .  S
O210       Zr229   2.383       .  S
Zr211       O236   2.441       .  S
Zr211       O230   2.451       .  S
Zr211       O238   2.436       .  S
Zr211       O226   2.421       .  S
Zr211       O217   2.395       .  S
Zr211       O218   2.416       .  S
Zr211       O219   2.379       .  S
Zr211       O220   2.380       .  S
Zr212       O231   2.435       .  S
Zr212       O224   2.435       .  S
Zr212       O225   2.429       .  S
Zr212       O218   2.400       .  S
Zr212       O219   2.396       .  S
Zr213       O215   2.435       .  S
Zr213       O237   2.435       .  S
Zr213       O239   2.450       .  S
Zr213       O217   2.383       .  S
Zr213       O220   2.395       .  S
Zr214       O240   2.437       .  S
Zr214       O241   2.434       .  S
Zr214       O216   2.438       .  S
Zr214       O217   2.390       .  S
Zr214       O218   2.400       .  S
O215        H252   0.990       .  S
O216        H247   0.990   1_545  S
O216        H261   0.990       .  S
O218        H244   0.962       .  S
O219       Zr229   2.377       .  S
O220       Zr229   2.388       .  S
O220        H245   0.965       .  S
C221       C1562   1.478   1_545  S
C222       C1366   1.481       .  S
C223       C1385   1.487       .  S
O224        H260   0.990       .  S
O225        C227   1.282       .  A
O226        C227   1.282       .  A
C227       C1338   1.487       .  S
O228       Zr229   2.434       .  S
O228        H257   0.990       .  S
Zr229       O232   2.435       .  S
Zr229       O233   2.437       .  S
Zr229       O234   2.405       .  S
O230        C235   1.285       .  A
O231        H248   0.990       .  S
O231        H263   0.990       .  S
O232        H249   0.990       .  S
O233        H253   0.990       .  S
O233        H262   0.990       .  S
O234        C235   1.280       .  A
C235       C1525   1.496       .  S
O236        H255   0.990       .  S
O236        H259   0.990       .  S
O237        H251   0.990       .  S
O237        H258   0.990       .  S
O238        C242   1.286       .  A
O239        C242   1.287       .  A
O240        H250   0.990       .  S
O241        H254   0.990       .  S
C242       C1301   1.500       .  S
Zr265       O266   2.439       .  S
Zr265       O267   2.424       .  S
Zr265       O268   2.432       .  S
Zr265       O271   2.432       .  S
Zr265       O273   2.374       .  S
Zr265       O274   2.384       .  S
Zr265       O275   2.401       .  S
Zr265       O276   2.391       .  S
O266        H322   0.990       .  S
O266        H330   0.990       .  S
O267        C287   1.284       .  A
O268        C289   1.286       .  A
O269       Zr279   2.451       .  S
O269        C288   1.289       .  A
O270       Zr278   2.414       .  S
O270        C289   1.281       .  A
O271        C288   1.286       .  A
O272       Zr280   2.441       .  S
O272        C287   1.286       .  A
O273       Zr278   2.389       .  S
O273       Zr280   2.364       .  S
O274       Zr279   2.386       .  S
O274       Zr280   2.379       .  S
O274        H309   0.964       .  S
O275       Zr278   2.399       .  S
O275       Zr295   2.396       .  S
O275        H312   0.968       .  S
O276       Zr279   2.388       .  S
O276       Zr295   2.376       .  S
Zr277       O302   2.441       .  S
Zr277       O296   2.444       .  S
Zr277       O304   2.436       .  S
Zr277       O292   2.431       .  S
Zr277       O283   2.406       .  S
Zr277       O284   2.406       .  S
Zr277       O285   2.377       .  S
Zr277       O286   2.388       .  S
Zr278       O297   2.437       .  S
Zr278       O290   2.433       .  S
Zr278       O291   2.427       .  S
Zr278       O284   2.389       .  S
Zr278       O285   2.386       .  S
Zr279       O281   2.435       .  S
Zr279       O303   2.439       .  S
Zr279       O305   2.441       .  S
Zr279       O283   2.391       .  S
Zr279       O286   2.394       .  S
Zr280       O306   2.434       .  S
Zr280       O307   2.436       .  S
Zr280       O282   2.437       .  S
Zr280       O283   2.399       .  S
Zr280       O284   2.405       .  S
O281        H318   0.989       .  S
O282        H313   0.990       .  S
O282        H327   0.990   1_455  S
O284        H310   0.963       .  S
O285       Zr295   2.377       .  S
O286       Zr295   2.386       .  S
O286        H311   0.963       .  S
C287       C1693   1.489   1_455  S
C288       C1422   1.489       .  S
C289       C1245   1.483       .  S
O290        H326   0.990       .  S
O291        C293   1.283       .  A
O292        C293   1.285       .  A
C293       C1450   1.493       .  S
O294       Zr295   2.436       .  S
O294        H323   0.990       .  S
Zr295       O298   2.435       .  S
Zr295       O299   2.438       .  S
Zr295       O300   2.402       .  S
O296        C301   1.285       .  A
O297        H314   0.990       .  S
O297        H329   0.990       .  S
O298        H315   0.991       .  S
O299        H319   0.990       .  S
O299        H328   0.991       .  S
O300        C301   1.279       .  A
C301       C1730   1.477       .  S
O302        H321   0.990       .  S
O302        H325   0.990       .  S
O303        H317   0.990       .  S
O303        H324   0.990       .  S
O304        C308   1.284       .  A
O305        C308   1.288       .  A
O306        H316   0.990       .  S
O307        H320   0.990       .  S
C308       C1282   1.488       .  S
Zr331       O332   2.436       .  S
Zr331       O333   2.427       .  S
Zr331       O334   2.424       .  S
Zr331       O337   2.415       .  S
Zr331       O339   2.382       .  S
Zr331       O340   2.381       .  S
Zr331       O341   2.399       .  S
Zr331       O342   2.399       .  S
O332        H388   0.990       .  S
O332        H396   0.990       .  S
O333        C353   1.282       .  A
O334        C355   1.283       .  A
O335       Zr345   2.431       .  S
O335        C354   1.286       .  A
O336       Zr344   2.427       .  S
O336        C355   1.284       .  A
O337        C354   1.281       .  A
O338       Zr346   2.428       .  S
O338        C353   1.284       .  A
O339       Zr344   2.392       .  S
O339       Zr346   2.370       .  S
O340       Zr345   2.385       .  S
O340       Zr346   2.369       .  S
O340        H375   0.966       .  S
O341       Zr344   2.391       .  S
O341       Zr361   2.393       .  S
O341        H378   0.968       .  S
O342       Zr345   2.390       .  S
O342       Zr361   2.390       .  S
Zr343       O368   2.440       .  S
Zr343       O362   2.439       .  S
Zr343       O370   2.440       .  S
Zr343       O358   2.421       .  S
Zr343       O349   2.401       .  S
Zr343       O350   2.411       .  S
Zr343       O351   2.381       .  S
Zr343       O352   2.388       .  S
Zr344       O363   2.438       .  S
Zr344       O356   2.436       .  S
Zr344       O357   2.427       .  S
Zr344       O350   2.395       .  S
Zr344       O351   2.384       .  S
Zr345       O347   2.436       .  S
Zr345       O369   2.438       .  S
Zr345       O371   2.435       .  S
Zr345       O349   2.391       .  S
Zr345       O352   2.385       .  S
Zr346       O372   2.435       .  S
Zr346       O373   2.434       .  S
Zr346       O348   2.437       .  S
Zr346       O349   2.392       .  S
Zr346       O350   2.395       .  S
O347        H384   0.990       .  S
O348        H379   0.990   1_655  S
O348        H393   0.989       .  S
O350        H376   0.963       .  S
O351       Zr361   2.371       .  S
O352       Zr361   2.383       .  S
O352        H377   0.964       .  S
C353       C1357   1.486   1_655  S
C354       C1609   1.476       .  S
C355       C1254   1.473       .  S
O356        H392   0.990       .  S
O357        C359   1.285       .  A
O358        C359   1.282       .  A
C359       C1590   1.486       .  S
O360       Zr361   2.434       .  S
O360        H389   0.990       .  S
Zr361       O364   2.436       .  S
Zr361       O365   2.436       .  S
Zr361       O366   2.406       .  S
O362        C367   1.285       .  A
O363        H380   0.990       .  S
O363        H395   0.990       .  S
O364        H381   0.990       .  S
O365        H385   0.990       .  S
O365        H394   0.990       .  S
O366        C367   1.280       .  A
C367       C1329   1.472       .  S
O368        H387   0.990       .  S
O368        H391   0.990       .  S
O369        H383   0.990       .  S
O369        H390   0.990       .  S
O370        C374   1.283       .  A
O371        C374   1.285       .  A
O372        H382   0.990       .  S
O373        H386   0.990       .  S
C374       C1217   1.479       .  S
Zr397       O398   2.438       .  S
Zr397       O399   2.420       .  S
Zr397       O400   2.420       .  S
Zr397       O403   2.415       .  S
Zr397       O405   2.379       .  S
Zr397       O406   2.384       .  S
Zr397       O407   2.406       .  S
Zr397       O408   2.392       .  S
O398        H454   0.990       .  S
O398        H462   0.990       .  S
O399        C419   1.282       .  A
O400        C421   1.282       .  A
O401       Zr411   2.426       .  S
O401        C420   1.285       .  A
O402       Zr410   2.454       .  S
O402        C421   1.290       .  A
O403        C420   1.282       .  A
O404       Zr412   2.449       .  S
O404        C419   1.288       .  A
O405       Zr410   2.391       .  S
O405       Zr412   2.360       .  S
O406       Zr411   2.375       .  S
O406       Zr412   2.376       .  S
O406        H441   0.965       .  S
O407       Zr410   2.399       .  S
O407       Zr427   2.399       .  S
O407        H444   0.966       .  S
O408       Zr411   2.390       .  S
O408       Zr427   2.377       .  S
Zr409       O434   2.439       .  S
Zr409       O428   2.461       .  S
Zr409       O436   2.446       .  S
Zr409       O424   2.403       .  S
Zr409       O415   2.400       .  S
Zr409       O416   2.419       .  S
Zr409       O417   2.386       .  S
Zr409       O418   2.378       .  S
Zr410       O429   2.436       .  S
Zr410       O422   2.435       .  S
Zr410       O423   2.463       .  S
Zr410       O416   2.392       .  S
Zr410       O417   2.390       .  S
Zr411       O413   2.436       .  S
Zr411       O435   2.438       .  S
Zr411       O437   2.435       .  S
Zr411       O415   2.385       .  S
Zr411       O418   2.389       .  S
Zr412       O438   2.431       .  S
Zr412       O439   2.435       .  S
Zr412       O414   2.438       .  S
Zr412       O415   2.397       .  S
Zr412       O416   2.407       .  S
O413        H450   0.990       .  S
O414        H445   0.990       .  S
O414        H459   0.990       .  S
O416        H442   0.960       .  S
O417       Zr427   2.381       .  S
O418       Zr427   2.390       .  S
O418        H443   0.965       .  S
C419       C1170   1.481       .  S
C420       C1086   1.479       .  S
C421       C1189   1.491       .  S
O422        H458   0.990       .  S
O423        C425   1.292       .  A
O424        C425   1.278       .  A
C425       C1114   1.495       .  S
O426       Zr427   2.436       .  S
O426        H455   0.990       .  S
Zr427       O430   2.436       .  S
Zr427       O431   2.438       .  S
Zr427       O432   2.401       .  S
O428        C433   1.290       .  A
O429        H446   0.990       .  S
O429        H461   0.989       .  S
O430        H447   0.990       .  S
O431        H451   0.990       .  S
O431        H460   0.990       .  S
O432        C433   1.277       .  A
C433       C1142   1.491       .  S
O434        H453   0.990       .  S
O434        H457   0.990       .  S
O435        H449   0.990       .  S
O435        H456   0.990       .  S
O436        C440   1.283       .  A
O437        C440   1.283       .  A
O438        H448   0.989       .  S
O439        H452   0.990       .  S
C440       C1273   1.479       .  S
Zr463       O464   2.439       .  S
Zr463       O465   2.419       .  S
Zr463       O466   2.454       .  S
Zr463       O469   2.427       .  S
Zr463       O471   2.376       .  S
Zr463       O472   2.382       .  S
Zr463       O473   2.400       .  S
Zr463       O474   2.401       .  S
O464        H520   0.991       .  S
O464        H528   0.990       .  S
O465        C485   1.282       .  A
O466        C487   1.288       .  A
O467       Zr477   2.427       .  S
O467        C486   1.284       .  A
O468       Zr476   2.422       .  S
O468        C487   1.283       .  A
O469        C486   1.286       .  A
O470       Zr478   2.435       .  S
O470        C485   1.285       .  A
O471       Zr476   2.391       .  S
O471       Zr478   2.372       .  S
O472       Zr477   2.384       .  S
O472       Zr478   2.375       .  S
O472        H507   0.962       .  S
O473       Zr476   2.396       .  S
O473       Zr493   2.401       .  S
O473        H510   0.968       .  S
O474       Zr477   2.397       .  S
O474       Zr493   2.386       .  S
Zr475       O500   2.441       .  S
Zr475       O494   2.442       .  S
Zr475       O502   2.439       .  S
Zr475       O490   2.419       .  S
Zr475       O481   2.391       .  S
Zr475       O482   2.412       .  S
Zr475       O483   2.377       .  S
Zr475       O484   2.379       .  S
Zr476       O495   2.438       .  S
Zr476       O488   2.436       .  S
Zr476       O489   2.423       .  S
Zr476       O482   2.403       .  S
Zr476       O483   2.388       .  S
Zr477       O479   2.435       .  S
Zr477       O501   2.437       .  S
Zr477       O503   2.435       .  S
Zr477       O481   2.386       .  S
Zr477       O484   2.392       .  S
Zr478       O504   2.435       .  S
Zr478       O505   2.436       .  S
Zr478       O480   2.437       .  S
Zr478       O481   2.388       .  S
Zr478       O482   2.408       .  S
O479        H516   0.990       .  S
O480        H511   0.990       .  S
O480        H525   0.990       .  S
O482        H508   0.966       .  S
O483       Zr493   2.369       .  S
O484       Zr493   2.385       .  S
O484        H509   0.965       .  S
C485       C1049   1.474       .  S
C486        C993   1.480       .  S
C487       C1198   1.489       .  S
O488        H524   0.990       .  S
O489        C491   1.282       .  A
O490        C491   1.281       .  A
C491        C974   1.472       .  S
O492       Zr493   2.436       .  S
O492        H521   0.990       .  S
Zr493       O496   2.435       .  S
Zr493       O497   2.437       .  S
Zr493       O498   2.410       .  S
O494        C499   1.284       .  A
O495        H512   0.990       .  S
O495        H527   0.990       .  S
O496        H513   0.990       .  S
O497        H517   0.990       .  S
O497        H526   0.990       .  S
O498        C499   1.281       .  A
C499       C1021   1.484       .  S
O500        H519   0.990       .  S
O500        H523   0.990       .  S
O501        H515   0.989       .  S
O501        H522   0.990       .  S
O502        C506   1.287       .  A
O503        C506   1.284       .  A
O504        H514   0.990       .  S
O505        H518   0.990       .  S
C506       C1310   1.497       .  S
Zr529       O530   2.440       .  S
Zr529       O531   2.425       .  S
Zr529       O532   2.434       .  S
Zr529       O535   2.435       .  S
Zr529       O537   2.384       .  S
Zr529       O538   2.385       .  S
Zr529       O539   2.401       .  S
Zr529       O540   2.396       .  S
O530        H586   0.990       .  S
O530        H594   0.990       .  S
O531        C551   1.283       .  A
O532        C553   1.285       .  A
O533       Zr543   2.429       .  S
O533        C552   1.285       .  A
O534       Zr542   2.450       .  S
O534        C553   1.288       .  A
O535        C552   1.285       .  A
O536       Zr544   2.429       .  S
O536        C551   1.283       .  A
O537       Zr542   2.395       .  S
O537       Zr544   2.371       .  S
O538       Zr543   2.388       .  S
O538       Zr544   2.380       .  S
O538        H573   0.967       .  S
O539       Zr542   2.401       .  S
O539       Zr559   2.394       .  S
O539        H576   0.968       .  S
O540       Zr543   2.391       .  S
O540       Zr559   2.384       .  S
Zr541       O566   2.440       .  S
Zr541       O560   2.466       .  S
Zr541       O568   2.459       .  S
Zr541       O556   2.423       .  S
Zr541       O547   2.388       .  S
Zr541       O548   2.426       .  S
Zr541       O549   2.384       .  S
Zr541       O550   2.385       .  S
Zr542       O561   2.436       .  S
Zr542       O554   2.435       .  S
Zr542       O555   2.447       .  S
Zr542       O548   2.396       .  S
Zr542       O549   2.396       .  S
Zr543       O545   2.437       .  S
Zr543       O567   2.440       .  S
Zr543       O569   2.439       .  S
Zr543       O547   2.379       .  S
Zr543       O550   2.397       .  S
Zr544       O570   2.435       .  S
Zr544       O571   2.437       .  S
Zr544       O546   2.436       .  S
Zr544       O547   2.377       .  S
Zr544       O548   2.412       .  S
O545        H582   0.990       .  S
O546        H577   0.990       .  S
O546        H591   0.990       .  S
O548        H574   0.961       .  S
O549       Zr559   2.380       .  S
O550       Zr559   2.394       .  S
O550        H575   0.962       .  S
C551        C909   1.468   1_455  S
C552       C1161   1.487       .  S
C553        C881   1.487       .  S
O554        H590   0.990       .  S
O555        C557   1.289       .  A
O556        C557   1.281       .  A
C557       C1133   1.490       .  S
O558       Zr559   2.435       .  S
O558        H587   0.990       .  S
Zr559       O562   2.435       .  S
Zr559       O563   2.438       .  S
Zr559       O564   2.397       .  S
O560        C565   1.288       .  A
O561        H578   0.990       .  S
O561        H593   0.990       .  S
O562        H579   0.990       .  S
O563        H583   0.990       .  S
O563        H592   0.990       .  S
O564        C565   1.278       .  A
C565        C946   1.492       .  S
O566        H585   0.990       .  S
O566        H589   0.991       .  S
O567        H581   0.990       .  S
O567        H588   0.990       .  S
O568        C572   1.288       .  A
O569        C572   1.285       .  A
O570        H580   0.990       .  S
O571        H584   0.990       .  S
C572       C1478   1.496       .  S
Zr595       O596   2.437       .  S
Zr595       O597   2.407       .  S
Zr595       O598   2.448       .  S
Zr595       O601   2.443       .  S
Zr595       O603   2.384       .  S
Zr595       O604   2.384       .  S
Zr595       O605   2.399       .  S
Zr595       O606   2.390       .  S
O596        H652   0.990       .  S
O596        H660   0.990       .  S
O597        C617   1.281       .  A
O598        C619   1.287       .  A
O599       Zr609   2.429       .  S
O599        C618   1.285       .  A
O600       Zr608   2.438       .  S
O600        C619   1.287       .  A
O601        C618   1.287       .  A
O602       Zr610   2.434       .  S
O602        C617   1.284       .  A
O603       Zr608   2.393       .  S
O603       Zr610   2.373       .  S
O604       Zr609   2.388       .  S
O604       Zr610   2.377       .  S
O604        H639   0.965       .  S
O605       Zr608   2.400       .  S
O605       Zr625   2.393       .  S
O605        H642   0.967       .  S
O606       Zr609   2.388       .  S
O606       Zr625   2.374       .  S
Zr607       O632   2.439       .  S
Zr607       O626   2.449       .  S
Zr607       O634   2.452       .  S
Zr607       O622   2.430       .  S
Zr607       O613   2.397       .  S
Zr607       O614   2.418       .  S
Zr607       O615   2.382       .  S
Zr607       O616   2.386       .  S
Zr608       O627   2.436       .  S
Zr608       O620   2.435       .  S
Zr608       O621   2.447       .  S
Zr608       O614   2.402       .  S
Zr608       O615   2.393       .  S
Zr609       O611   2.438       .  S
Zr609       O633   2.436       .  S
Zr609       O635   2.434       .  S
Zr609       O613   2.383       .  S
Zr609       O616   2.395       .  S
Zr610       O636   2.435       .  S
Zr610       O637   2.436       .  S
Zr610       O612   2.436       .  S
Zr610       O613   2.388       .  S
Zr610       O614   2.405       .  S
O611        H648   0.990       .  S
O612        H643   0.990       .  S
O612        H657   0.990       .  S
O614        H640   0.964       .  S
O615       Zr625   2.380       .  S
O616       Zr625   2.389       .  S
O616        H641   0.962       .  S
C617       C1002   1.481   1_655  S
C618        C825   1.480       .  S
C619        C890   1.495       .  S
O620        H656   0.990       .  S
O621        C623   1.286       .  A
O622        C623   1.283       .  A
C623        C862   1.492       .  S
O624       Zr625   2.435       .  S
O624        H653   0.990       .  S
Zr625       O628   2.437       .  S
Zr625       O629   2.438       .  S
Zr625       O630   2.386       .  S
O626        C631   1.284       .  A
O627        H644   0.990       .  S
O627        H659   0.990       .  S
O628        H645   0.990       .  S
O629        H649   0.990       .  S
O629        H658   0.990       .  S
O630        C631   1.277       .  A
C631        C965   1.487       .  S
O632        H651   0.990       .  S
O632        H655   0.990       .  S
O633        H647   0.990       .  S
O633        H654   0.990       .  S
O634        C638   1.287       .  A
O635        C638   1.286       .  A
O636        H646   0.990       .  S
O637        H650   0.990       .  S
C638       C1506   1.493       .  S
Zr661       O662   2.435       .  S
Zr661       O663   2.415       .  S
Zr661       O664   2.438       .  S
Zr661       O667   2.420       .  S
Zr661       O669   2.382       .  S
Zr661       O670   2.390       .  S
Zr661       O671   2.398       .  S
Zr661       O672   2.394       .  S
O662        H718   0.990       .  S
O662        H726   0.990       .  S
O663        C683   1.280       .  A
O664        C685   1.284       .  A
O665       Zr675   2.434       .  S
O665        C684   1.287       .  A
O666       Zr674   2.426       .  S
O666        C685   1.284       .  A
O667        C684   1.282       .  A
O668       Zr676   2.434       .  S
O668        C683   1.283       .  A
O669       Zr674   2.393       .  S
O669       Zr676   2.371       .  S
O670       Zr675   2.387       .  S
O670       Zr676   2.376       .  S
O670        H705   0.965       .  S
O671       Zr674   2.397       .  S
O671       Zr691   2.391       .  S
O671        H708   0.968       .  S
O672       Zr675   2.392       .  S
O672       Zr691   2.380       .  S
Zr673       O698   2.443       .  S
Zr673       O692   2.457       .  S
Zr673       O700   2.436       .  S
Zr673       O688   2.437       .  S
Zr673       O679   2.398       .  S
Zr673       O680   2.418       .  S
Zr673       O681   2.377       .  S
Zr673       O682   2.382       .  S
Zr674       O693   2.436       .  S
Zr674       O686   2.435       .  S
Zr674       O687   2.430       .  S
Zr674       O680   2.398       .  S
Zr674       O681   2.393       .  S
Zr675       O677   2.435       .  S
Zr675       O699   2.438       .  S
Zr675       O701   2.448       .  S
Zr675       O679   2.386       .  S
Zr675       O682   2.388       .  S
Zr676       O702   2.437       .  S
Zr676       O703   2.435       .  S
Zr676       O678   2.438       .  S
Zr676       O679   2.390       .  S
Zr676       O680   2.409       .  S
O677        H714   0.990       .  S
O678        H709   0.990   1_565  S
O678        H723   0.990       .  S
O680        H706   0.969       .  S
O681       Zr691   2.381       .  S
O682       Zr691   2.391       .  S
O682        H707   0.967       .  S
C683       C1077   1.461   1_565  S
C684        C918   1.490       .  S
C685        C797   1.477       .  S
O686        H722   0.989       .  S
O687        C689   1.283       .  A
O688        C689   1.284       .  A
C689        C937   1.485       .  S
O690       Zr691   2.435       .  S
O690        H719   0.990       .  S
Zr691       O694   2.436       .  S
Zr691       O695   2.436       .  S
Zr691       O696   2.395       .  S
O692        C697   1.288       .  A
O693        H710   0.990       .  S
O693        H725   0.990       .  S
O694        H711   0.990       .  S
O695        H715   0.990       .  S
O695        H724   0.990       .  S
O696        C697   1.277       .  A
C697       C1105   1.474       .  S
O698        H717   0.991       .  S
O698        H721   0.990       .  S
O699        H713   0.990       .  S
O699        H720   0.990       .  S
O700        C704   1.286       .  A
O701        C704   1.287       .  A
O702        H712   0.990       .  S
O703        H716   0.990       .  S
C704       C1637   1.496       .  S
Zr727       O728   2.439       .  S
Zr727       O729   2.436       .  S
Zr727       O730   2.438       .  S
Zr727       O733   2.423       .  S
Zr727       O735   2.377       .  S
Zr727       O736   2.380       .  S
Zr727       O737   2.404       .  S
Zr727       O738   2.405       .  S
O728        H784   0.990       .  S
O728        H792   0.990       .  S
O729        C749   1.286       .  A
O730        C751   1.287       .  A
O731       Zr741   2.431       .  S
O731        C750   1.285       .  A
O732       Zr740   2.417       .  S
O732        C751   1.281       .  A
O733        C750   1.283       .  A
O734       Zr742   2.431       .  S
O734        C749   1.283       .  A
O735       Zr740   2.397       .  S
O735       Zr742   2.370       .  S
O736       Zr741   2.380       .  S
O736       Zr742   2.377       .  S
O736        H771   0.966       .  S
O737       Zr740   2.396       .  S
O737       Zr757   2.402       .  S
O737        H774   0.968       .  S
O738       Zr741   2.388       .  S
O738       Zr757   2.393       .  S
Zr739       O764   2.443       .  S
Zr739       O758   2.443       .  S
Zr739       O766   2.454       .  S
Zr739       O754   2.425       .  S
Zr739       O745   2.394       .  S
Zr739       O746   2.414       .  S
Zr739       O747   2.376       .  S
Zr739       O748   2.386       .  S
Zr740       O759   2.436       .  S
Zr740       O752   2.434       .  S
Zr740       O753   2.428       .  S
Zr740       O746   2.397       .  S
Zr740       O747   2.387       .  S
Zr741       O743   2.436       .  S
Zr741       O765   2.439       .  S
Zr741       O767   2.427       .  S
Zr741       O745   2.386       .  S
Zr741       O748   2.397       .  S
Zr742       O768   2.432       .  S
Zr742       O769   2.436       .  S
Zr742       O744   2.435       .  S
Zr742       O745   2.382       .  S
Zr742       O746   2.408       .  S
O743        H780   0.990       .  S
O744        H775   0.990       .  S
O744        H789   0.991   1_545  S
O746        H772   0.961       .  S
O747       Zr757   2.374       .  S
O748       Zr757   2.390       .  S
O748        H773   0.966       .  S
C749        C834   1.491   1_545  S
C750       C1058   1.479       .  S
C751        C806   1.488       .  S
O752        H788   0.990       .  S
O753        C755   1.283       .  A
O754        C755   1.284       .  A
C755       C1030   1.489       .  S
O756       Zr757   2.436       .  S
O756        H785   0.990       .  S
Zr757       O760   2.436       .  S
Zr757       O761   2.440       .  S
Zr757       O762   2.416       .  S
O758        C763   1.285       .  A
O759        H776   0.990       .  S
O759        H791   0.990       .  S
O760        H777   0.990       .  S
O761        H781   0.990       .  S
O761        H790   0.989       .  S
O762        C763   1.281       .  A
C763        C853   1.486       .  S
O764        H783   0.991       .  S
O764        H787   0.990       .  S
O765        H779   0.990       .  S
O765        H786   0.990       .  S
O766        C770   1.286       .  A
O767        C770   1.283       .  A
O768        H778   0.990       .  S
O769        H782   0.990       .  S
C770       C1226   1.476       .  S
C793        C794   1.405       .  A
C793        C798   1.399       .  A
C793        H803   1.083   1_554  S
C794        C799   1.490   1_564  S
C794        C795   1.414       .  A
C795        C796   1.399       .  A
C795        N800   1.429   1_565  S
C796        C797   1.402       .  A
C796        H801   1.084       .  S
C797        C798   1.410       .  A
C798        N802   1.428       .  S
C799        C804   1.413       .  A
C799        C808   1.404       .  A
N800        O815   1.262       .  A
N800        O816   1.262       .  A
N802        O813   1.262       .  A
N802        O814   1.262       .  A
C804        C805   1.397       .  A
C804        N809   1.429       .  S
C805        C806   1.404       .  A
C805        H810   1.084       .  S
C806        C807   1.417       .  A
C807        C808   1.400       .  A
C807        N811   1.429       .  S
C808        H812   1.082       .  S
N809        O819   1.262       .  A
N809        O820   1.262   1_556  A
N811        O817   1.262       .  A
N811        O818   1.262       .  A
C821        C822   1.404       .  A
C821        C826   1.401       .  A
C821        H831   1.083       .  S
C822        C827   1.487       .  S
C822        C823   1.412       .  A
C823        C824   1.401       .  A
C823        N828   1.429       .  S
C824        C825   1.404       .  A
C824        H829   1.084       .  S
C825        C826   1.410       .  A
C826        N830   1.428       .  S
C827        C832   1.410       .  A
C827        C836   1.402       .  A
N828        O843   1.262       .  A
N828        O844   1.262       .  A
N830        O841   1.262       .  A
N830        O842   1.262       .  A
C832        C833   1.401       .  A
C832        N837   1.429       .  S
C833        C834   1.407       .  A
C833        H838   1.084       .  S
C834        C835   1.418       .  A
C835        C836   1.402       .  A
C835        N839   1.429       .  S
C836        H840   1.084       .  S
N837        O847   1.262       .  A
N837        O848   1.262       .  A
N839        O845   1.262       .  A
N839        O846   1.262       .  A
C849        C850   1.404       .  A
C849        C854   1.404       .  A
C849        H859   1.084       .  S
C850        C855   1.485       .  S
C850        C851   1.408       .  A
C851        C852   1.399       .  A
C851        N856   1.428       .  S
C852        C853   1.406       .  A
C852        H857   1.084       .  S
C853        C854   1.414       .  A
C854        N858   1.429       .  S
C855        C860   1.406       .  A
C855        C864   1.404       .  A
N856        O871   1.262       .  A
N856        O872   1.262       .  A
N858        O869   1.262       .  A
N858        O870   1.262       .  A
C860        C861   1.398       .  A
C860        N865   1.429       .  S
C861        C862   1.409       .  A
C861        H866   1.083       .  S
C862        C863   1.415       .  A
C863        C864   1.405       .  A
C863        N867   1.428       .  S
C864        H868   1.084       .  S
N865        O875   1.262       .  A
N865        O876   1.262       .  A
N867        O873   1.262       .  A
N867        O874   1.262       .  A
C877        C878   1.406       .  A
C877        C882   1.405       .  A
C877        H887   1.084   1_455  S
C878        C883   1.493   1_454  S
C878        C879   1.412       .  A
C879        C880   1.402       .  A
C879        N884   1.429   1_554  S
C880        C881   1.405       .  A
C880        H885   1.084       .  S
C881        C882   1.412       .  A
C882        N886   1.428       .  S
C883        C888   1.410       .  A
C883        C892   1.404       .  A
N884        O899   1.262       .  A
N884        O900   1.262       .  A
N886        O897   1.262       .  A
N886        O898   1.262   1_455  A
C888        C889   1.402       .  A
C888        N893   1.429   1_655  S
C889        C890   1.407       .  A
C889        H894   1.084       .  S
C890        C891   1.417       .  A
C891        C892   1.405       .  A
C891        N895   1.428       .  S
C892        H896   1.083       .  S
N893        O903   1.262       .  A
N893        O904   1.262       .  A
N895        O901   1.262       .  A
N895        O902   1.262       .  A
C905        C906   1.403       .  A
C905        C910   1.396       .  A
C905        H915   1.083       .  S
C906        C911   1.481       .  S
C906        C907   1.412       .  A
C907        C908   1.400       .  A
C907        N912   1.429       .  S
C908        C909   1.401       .  A
C908        H913   1.084       .  S
C909        C910   1.408       .  A
C910        N914   1.429   1_655  S
C911        C916   1.408       .  A
C911        C920   1.402       .  A
N912        O927   1.262       .  A
N912        O928   1.262       .  A
N914        O925   1.262       .  A
N914        O926   1.262   1_455  A
C916        C917   1.393       .  A
C916        N921   1.429       .  S
C917        C918   1.407       .  A
C917        H922   1.083       .  S
C918        C919   1.420       .  A
C919        C920   1.402       .  A
C919        N923   1.430       .  S
C920        H924   1.083       .  S
N921        O931   1.262       .  A
N921        O932   1.262       .  A
N923        O929   1.262       .  A
N923        O930   1.262       .  A
C933        C934   1.404       .  A
C933        C938   1.401       .  A
C933        H943   1.083       .  S
C934        C939   1.488       .  S
C934        C935   1.410       .  A
C935        C936   1.401       .  A
C935        N940   1.429       .  S
C936        C937   1.406       .  A
C936        H941   1.084       .  S
C937        C938   1.413       .  A
C938        N942   1.429       .  S
C939        C944   1.409       .  A
C939        C948   1.407       .  A
N940        O955   1.262       .  A
N940        O956   1.262       .  A
N942        O953   1.262       .  A
N942        O954   1.262       .  A
C944        C945   1.397       .  A
C944        N949   1.430       .  S
C945        C946   1.409       .  A
C945        H950   1.084       .  S
C946        C947   1.413       .  A
C947        C948   1.406       .  A
C947        N951   1.428       .  S
C948        H952   1.083       .  S
N949        O959   1.262       .  A
N949        O960   1.262       .  A
N951        O957   1.262       .  A
N951        O958   1.262       .  A
C961        C962   1.403       .  A
C961        C966   1.401       .  A
C961        H971   1.083       .  S
C962        C967   1.476       .  S
C962        C963   1.404       .  A
C963        C964   1.391       .  A
C963        N968   1.430       .  S
C964        C965   1.410       .  A
C964        H969   1.083       .  S
C965        C966   1.415       .  A
C966        N970   1.428       .  S
C967        C972   1.407       .  A
C967        C976   1.404       .  A
N968        O983   1.262       .  A
N968        O984   1.262       .  A
N970        O981   1.262       .  A
N970        O982   1.262       .  A
C972        C973   1.393       .  A
C972        N977   1.429       .  S
C973        C974   1.403       .  A
C973        H978   1.084       .  S
C974        C975   1.411       .  A
C975        C976   1.399       .  A
C975        N979   1.429       .  S
C976        H980   1.084       .  S
N977        O987   1.262       .  A
N977        O988   1.262       .  A
N979        O985   1.262       .  A
N979        O986   1.262       .  A
C989        C990   1.398       .  A
C989        C994   1.396       .  A
C989        H999   1.084       .  S
C990        C995   1.472       .  S
C990        C991   1.407       .  A
C991        C992   1.399       .  A
C991        N996   1.429       .  S
C992        C993   1.406   1_565  A
C992        H997   1.084   1_565  S
C993        C994   1.415   1_545  A
C994        N998   1.428   1_565  S
C995       C1000   1.406       .  A
C995       C1004   1.402       .  A
N996       O1011   1.262       .  A
N996       O1012   1.261       .  A
N998       O1009   1.262       .  A
N998       O1010   1.262   1_545  A
C1000      C1001   1.394       .  A
C1000      N1005   1.430       .  S
C1001      C1002   1.407       .  A
C1001      H1006   1.083   1_455  S
C1002      C1003   1.413       .  A
C1003      C1004   1.399       .  A
C1003      N1007   1.428       .  S
C1004      H1008   1.084       .  S
N1005      O1015   1.262       .  A
N1005      O1016   1.262       .  A
N1007      O1013   1.262       .  A
N1007      O1014   1.262       .  A
C1017      C1018   1.405       .  A
C1017      C1022   1.404       .  A
C1017      H1027   1.083       .  S
C1018      C1023   1.486       .  S
C1018      C1019   1.410       .  A
C1019      C1020   1.394       .  A
C1019      N1024   1.429       .  S
C1020      C1021   1.405       .  A
C1020      H1025   1.084       .  S
C1021      C1022   1.414       .  A
C1022      N1026   1.429       .  S
C1023      C1028   1.409       .  A
C1023      C1032   1.404       .  A
N1024      O1039   1.262       .  A
N1024      O1040   1.262       .  A
N1026      O1037   1.262       .  A
N1026      O1038   1.262       .  A
C1028      C1029   1.396       .  A
C1028      N1033   1.429       .  S
C1029      C1030   1.408       .  A
C1029      H1034   1.083       .  S
C1030      C1031   1.416       .  A
C1031      C1032   1.401       .  A
C1031      N1035   1.429       .  S
C1032      H1036   1.083       .  S
N1033      O1043   1.262       .  A
N1033      O1044   1.262       .  A
N1035      O1041   1.262       .  A
N1035      O1042   1.262       .  A
C1045      C1046   1.402       .  A
C1045      C1050   1.397       .  A
C1045      H1055   1.084       .  S
C1046      C1051   1.479       .  S
C1046      C1047   1.409       .  A
C1047      C1048   1.398       .  A
C1047      N1052   1.428       .  S
C1048      C1049   1.403       .  A
C1048      H1053   1.081       .  S
C1049      C1050   1.411       .  A
C1050      N1054   1.429       .  S
C1051      C1056   1.407       .  A
C1051      C1060   1.405       .  A
N1052      O1067   1.262       .  A
N1052      O1068   1.262       .  A
N1054      O1065   1.262       .  A
N1054      O1066   1.262       .  A
C1056      C1057   1.392       .  A
C1056      N1061   1.429       .  S
C1057      C1058   1.404   1_455  A
C1057      H1062   1.084       .  S
C1058      C1059   1.414       .  A
C1059      C1060   1.404   1_655  A
C1059      N1063   1.430       .  S
C1060      H1064   1.084       .  S
N1061      O1071   1.262       .  A
N1061      O1072   1.262       .  A
N1063      O1069   1.262       .  A
N1063      O1070   1.262       .  A
C1073      C1074   1.399       .  A
C1073      C1078   1.396   1_545  A
C1073      H1083   1.084       .  S
C1074      C1079   1.470       .  S
C1074      C1075   1.409       .  A
C1075      C1076   1.398       .  A
C1075      N1080   1.428       .  S
C1076      C1077   1.399       .  A
C1076      H1081   1.084       .  S
C1077      C1078   1.409   1_545  A
C1078      N1082   1.429       .  S
C1079      C1084   1.405       .  A
C1079      C1088   1.399       .  A
N1080      O1095   1.262       .  A
N1080      O1096   1.262       .  A
N1082      O1093   1.262       .  A
N1082      O1094   1.261       .  A
C1084      C1085   1.394   1_655  A
C1084      N1089   1.429       .  S
C1085      C1086   1.406       .  A
C1085      H1090   1.084       .  S
C1086      C1087   1.416       .  A
C1087      C1088   1.399   1_455  A
C1087      N1091   1.429       .  S
C1088      H1092   1.084       .  S
N1089      O1099   1.262       .  A
N1089      O1100   1.262       .  A
N1091      O1097   1.262       .  A
N1091      O1098   1.262       .  A
C1101      C1102   1.400       .  A
C1101      C1106   1.396       .  A
C1101      H1111   1.083       .  S
C1102      C1107   1.485       .  S
C1102      C1103   1.416       .  A
C1103      C1104   1.400       .  A
C1103      N1108   1.429       .  S
C1104      C1105   1.400       .  A
C1104      H1109   1.084       .  S
C1105      C1106   1.413       .  A
C1106      N1110   1.429       .  S
C1107      C1112   1.413       .  A
C1107      C1116   1.395       .  A
N1108      O1123   1.262       .  A
N1108      O1124   1.262       .  A
N1110      O1121   1.262       .  A
N1110      O1122   1.262       .  A
C1112      C1113   1.402       .  A
C1112      N1117   1.429       .  S
C1113      C1114   1.406       .  A
C1113      H1118   1.083       .  S
C1114      C1115   1.424       .  A
C1115      C1116   1.396       .  A
C1115      N1119   1.428       .  S
C1116      H1120   1.084       .  S
N1117      O1127   1.262       .  A
N1117      O1128   1.261       .  A
N1119      O1125   1.262       .  A
N1119      O1126   1.261       .  A
C1129      C1130   1.400       .  A
C1129      C1134   1.401       .  A
C1129      H1139   1.083       .  S
C1130      C1135   1.486       .  S
C1130      C1131   1.412       .  A
C1131      C1132   1.399       .  A
C1131      N1136   1.429       .  S
C1132      C1133   1.404       .  A
C1132      H1137   1.084       .  S
C1133      C1134   1.420       .  A
C1134      N1138   1.429       .  S
C1135      C1140   1.412       .  A
C1135      C1144   1.399       .  A
N1136      O1151   1.262       .  A
N1136      O1152   1.262       .  A
N1138      O1149   1.262       .  A
N1138      O1150   1.262       .  A
C1140      C1141   1.404       .  A
C1140      N1145   1.429       .  S
C1141      C1142   1.404       .  A
C1141      H1146   1.079       .  S
C1142      C1143   1.419       .  A
C1143      C1144   1.397       .  A
C1143      N1147   1.429       .  S
C1144      H1148   1.084       .  S
N1145      O1155   1.262       .  A
N1145      O1156   1.262       .  A
N1147      O1153   1.262       .  A
N1147      O1154   1.262       .  A
C1157      C1158   1.402       .  A
C1157      C1162   1.404   1_545  A
C1157      H1167   1.084       .  S
C1158      C1163   1.478       .  S
C1158      C1159   1.406       .  A
C1159      C1160   1.396   1_545  A
C1159      N1164   1.429       .  S
C1160      C1161   1.407       .  A
C1160      H1165   1.084       .  S
C1161      C1162   1.416       .  A
C1162      N1166   1.429       .  S
C1163      C1168   1.410       .  A
C1163      C1172   1.399       .  A
N1164      O1179   1.262       .  A
N1164      O1180   1.261       .  A
N1166      O1177   1.262       .  A
N1166      O1178   1.262       .  A
C1168      C1169   1.401       .  A
C1168      N1173   1.428       .  S
C1169      C1170   1.403       .  A
C1169      H1174   1.084       .  S
C1170      C1171   1.416       .  A
C1171      C1172   1.399       .  A
C1171      N1175   1.429       .  S
C1172      H1176   1.084       .  S
N1173      O1183   1.262       .  A
N1173      O1184   1.261       .  A
N1175      O1181   1.262       .  A
N1175      O1182   1.262       .  A
C1185      C1186   1.399       .  A
C1185      C1190   1.400       .  A
C1185      H1195   1.084       .  S
C1186      C1191   1.484   1_554  S
C1186      C1187   1.411       .  A
C1187      C1188   1.403       .  A
C1187      N1192   1.429   1_554  S
C1188      C1189   1.406       .  A
C1188      H1193   1.084       .  S
C1189      C1190   1.419       .  A
C1190      N1194   1.430       .  S
C1191      C1196   1.408       .  A
C1191      C1200   1.403       .  A
N1192      O1207   1.262       .  A
N1192      O1208   1.262   1_556  A
N1194      O1205   1.262       .  A
N1194      O1206   1.262       .  A
C1196      C1197   1.401       .  A
C1196      N1201   1.429       .  S
C1197      C1198   1.408       .  A
C1197      H1202   1.084       .  S
C1198      C1199   1.413       .  A
C1199      C1200   1.404       .  A
C1199      N1203   1.427       .  S
C1200      H1204   1.084       .  S
N1201      O1211   1.262   1_556  A
N1201      O1212   1.262       .  A
N1203      O1209   1.262       .  A
N1203      O1210   1.261       .  A
C1213      C1214   1.406       .  A
C1213      C1218   1.407       .  A
C1213      H1223   1.084       .  S
C1214      C1219   1.483       .  S
C1214      C1215   1.408       .  A
C1215      C1216   1.394       .  A
C1215      N1220   1.429       .  S
C1216      C1217   1.402       .  A
C1216      H1221   1.084       .  S
C1217      C1218   1.413       .  A
C1218      N1222   1.429       .  S
C1219      C1224   1.410       .  A
C1219      C1228   1.402       .  A
N1220      O1235   1.262       .  A
N1220      O1236   1.262       .  A
N1222      O1233   1.262       .  A
N1222      O1234   1.262       .  A
C1224      C1225   1.402       .  A
C1224      N1229   1.427       .  S
C1225      C1226   1.401       .  A
C1225      H1230   1.084       .  S
C1226      C1227   1.412       .  A
C1227      C1228   1.399       .  A
C1227      N1231   1.429       .  S
C1228      H1232   1.084       .  S
N1229      O1239   1.262       .  A
N1229      O1240   1.262       .  A
N1231      O1237   1.262       .  A
N1231      O1238   1.262       .  A
C1241      C1242   1.402       .  A
C1241      C1246   1.399       .  A
C1241      H1251   1.084       .  S
C1242      C1247   1.480   1_455  S
C1242      C1243   1.410       .  A
C1243      C1244   1.394       .  A
C1243      N1248   1.429       .  S
C1244      C1245   1.405       .  A
C1244      H1249   1.084       .  S
C1245      C1246   1.417       .  A
C1246      N1250   1.429       .  S
C1247      C1252   1.411   1_655  A
C1247      C1256   1.402       .  A
N1248      O1263   1.262       .  A
N1248      O1264   1.261       .  A
N1250      O1261   1.262       .  A
N1250      O1262   1.262       .  A
C1252      C1253   1.398   1_455  A
C1252      N1257   1.429       .  S
C1253      C1254   1.403       .  A
C1253      H1258   1.084       .  S
C1254      C1255   1.411       .  A
C1255      C1256   1.396       .  A
C1255      N1259   1.429       .  S
C1256      H1260   1.083       .  S
N1257      O1267   1.262       .  A
N1257      O1268   1.262       .  A
N1259      O1265   1.262       .  A
N1259      O1266   1.262       .  A
C1269      C1270   1.402       .  A
C1269      C1274   1.398       .  A
C1269      H1279   1.083       .  S
C1270      C1275   1.490       .  S
C1270      C1271   1.414       .  A
C1271      C1272   1.405       .  A
C1271      N1276   1.428       .  S
C1272      C1273   1.403       .  A
C1272      H1277   1.084       .  S
C1273      C1274   1.411       .  A
C1274      N1278   1.428       .  S
C1275      C1280   1.412       .  A
C1275      C1284   1.404       .  A
N1276      O1291   1.262       .  A
N1276      O1292   1.262       .  A
N1278      O1289   1.262       .  A
N1278      O1290   1.261       .  A
C1280      C1281   1.399       .  A
C1280      N1285   1.430       .  S
C1281      C1282   1.404       .  A
C1281      H1286   1.084       .  S
C1282      C1283   1.415       .  A
C1283      C1284   1.406       .  A
C1283      N1287   1.429       .  S
C1284      H1288   1.083       .  S
N1285      O1295   1.262       .  A
N1285      O1296   1.262       .  A
N1287      O1293   1.262       .  A
N1287      O1294   1.262       .  A
C1297      C1298   1.401       .  A
C1297      C1302   1.404       .  A
C1297      H1307   1.084       .  S
C1298      C1303   1.483       .  S
C1298      C1299   1.406       .  A
C1299      C1300   1.400       .  A
C1299      N1304   1.429       .  S
C1300      C1301   1.412       .  A
C1300      H1305   1.082       .  S
C1301      C1302   1.418       .  A
C1302      N1306   1.428       .  S
C1303      C1308   1.407       .  A
C1303      C1312   1.401       .  A
N1304      O1319   1.262       .  A
N1304      O1320   1.262       .  A
N1306      O1317   1.262       .  A
N1306      O1318   1.262       .  A
C1308      C1309   1.400       .  A
C1308      N1313   1.428       .  S
C1309      C1310   1.410       .  A
C1309      H1314   1.083       .  S
C1310      C1311   1.419       .  A
C1311      C1312   1.403       .  A
C1311      N1315   1.429       .  S
C1312      H1316   1.084       .  S
N1313      O1323   1.262       .  A
N1313      O1324   1.261       .  A
N1315      O1321   1.262       .  A
N1315      O1322   1.262       .  A
C1325      C1326   1.403       .  A
C1325      C1330   1.399       .  A
C1325      H1335   1.083       .  S
C1326      C1331   1.477       .  S
C1326      C1327   1.408       .  A
C1327      C1328   1.394       .  A
C1327      N1332   1.429       .  S
C1328      C1329   1.404       .  A
C1328      H1333   1.084       .  S
C1329      C1330   1.409       .  A
C1330      N1334   1.426       .  S
C1331      C1336   1.405       .  A
C1331      C1340   1.402       .  A
N1332      O1347   1.262       .  A
N1332      O1348   1.262       .  A
N1334      O1345   1.262       .  A
N1334      O1346   1.261       .  A
C1336      C1337   1.394       .  A
C1336      N1341   1.429       .  S
C1337      C1338   1.409       .  A
C1337      H1342   1.083       .  S
C1338      C1339   1.416       .  A
C1339      C1340   1.400       .  A
C1339      N1343   1.429       .  S
C1340      H1344   1.084       .  S
N1341      O1351   1.262       .  A
N1341      O1352   1.262       .  A
N1343      O1349   1.262       .  A
N1343      O1350   1.262       .  A
C1353      C1354   1.404       .  A
C1353      C1358   1.403       .  A
C1353      H1363   1.083       .  S
C1354      C1359   1.485       .  S
C1354      C1355   1.410       .  A
C1355      C1356   1.395       .  A
C1355      N1360   1.430       .  S
C1356      C1357   1.405       .  A
C1356      H1361   1.084       .  S
C1357      C1358   1.415       .  A
C1358      N1362   1.429       .  S
C1359      C1364   1.411       .  A
C1359      C1368   1.402       .  A
N1360      O1375   1.262       .  A
N1360      O1376   1.262       .  A
N1362      O1373   1.261   1_455  A
N1362      O1374   1.262       .  A
C1364      C1365   1.401       .  A
C1364      N1369   1.429       .  S
C1365      C1366   1.404       .  A
C1365      H1370   1.084       .  S
C1366      C1367   1.413       .  A
C1367      C1368   1.398       .  A
C1367      N1371   1.429       .  S
C1368      H1372   1.084       .  S
N1369      O1379   1.262       .  A
N1369      O1380   1.262       .  A
N1371      O1377   1.262       .  A
N1371      O1378   1.262       .  A
C1381      C1382   1.403       .  A
C1381      C1386   1.402       .  A
C1381      H1391   1.083   1_545  S
C1382      C1387   1.489   1_545  S
C1382      C1383   1.412       .  A
C1383      C1384   1.401       .  A
C1383      N1388   1.429       .  S
C1384      C1385   1.405       .  A
C1384      H1389   1.084       .  S
C1385      C1386   1.415       .  A
C1386      N1390   1.429       .  S
C1387      C1392   1.412       .  A
C1387      C1396   1.402       .  A
N1388      O1403   1.262       .  A
N1388      O1404   1.262       .  A
N1390      O1401   1.262       .  A
N1390      O1402   1.262   1_545  A
C1392      C1393   1.401       .  A
C1392      N1397   1.429   1_565  S
C1393      C1394   1.405       .  A
C1393      H1398   1.084       .  S
C1394      C1395   1.416       .  A
C1395      C1396   1.402       .  A
C1395      N1399   1.429       .  S
C1396      H1400   1.083       .  S
N1397      O1407   1.262   1_545  A
N1397      O1408   1.262       .  A
N1399      O1405   1.262       .  A
N1399      O1406   1.262       .  A
C1409      C1410   1.405       .  A
C1409      C1414   1.408       .  A
C1409      H1419   1.084       .  S
C1410      C1415   1.485       .  S
C1410      C1411   1.408       .  A
C1411      C1412   1.397       .  A
C1411      N1416   1.428       .  S
C1412      C1413   1.403   1_545  A
C1412      H1417   1.084   1_545  S
C1413      C1414   1.415   1_565  A
C1414      N1418   1.429       .  S
C1415      C1420   1.409       .  A
C1415      C1424   1.401       .  A
N1416      O1431   1.262       .  A
N1416      O1432   1.262       .  A
N1418      O1429   1.261   1_545  A
N1418      O1430   1.262       .  A
C1420      C1421   1.404       .  A
C1420      N1425   1.428       .  S
C1421      C1422   1.408       .  A
C1421      H1426   1.084       .  S
C1422      C1423   1.414       .  A
C1423      C1424   1.400       .  A
C1423      N1427   1.428       .  S
C1424      H1428   1.084       .  S
N1425      O1435   1.262       .  A
N1425      O1436   1.262       .  A
N1427      O1433   1.262       .  A
N1427      O1434   1.262       .  A
C1437      C1438   1.405       .  A
C1437      C1442   1.401       .  A
C1437      H1447   1.082       .  S
C1438      C1443   1.491       .  S
C1438      C1439   1.416       .  A
C1439      C1440   1.400       .  A
C1439      N1444   1.430       .  S
C1440      C1441   1.400       .  A
C1440      H1445   1.084       .  S
C1441      C1442   1.410       .  A
C1442      N1446   1.429       .  S
C1443      C1448   1.412       .  A
C1443      C1452   1.403       .  A
N1444      O1459   1.262       .  A
N1444      O1460   1.262       .  A
N1446      O1457   1.262       .  A
N1446      O1458   1.262       .  A
C1448      C1449   1.400       .  A
C1448      N1453   1.429       .  S
C1449      C1450   1.408       .  A
C1449      H1454   1.084       .  S
C1450      C1451   1.417       .  A
C1451      C1452   1.400       .  A
C1451      N1455   1.429       .  S
C1452      H1456   1.083       .  S
N1453      O1463   1.262       .  A
N1453      O1464   1.261       .  A
N1455      O1461   1.262       .  A
N1455      O1462   1.262       .  A
C1465      C1466   1.406       .  A
C1465      C1470   1.407       .  A
C1465      H1475   1.084       .  S
C1466      C1471   1.484       .  S
C1466      C1467   1.409       .  A
C1467      C1468   1.396       .  A
C1467      N1472   1.429       .  S
C1468      C1469   1.401       .  A
C1468      H1473   1.085       .  S
C1469      C1470   1.410       .  A
C1470      N1474   1.428       .  S
C1471      C1476   1.408       .  A
C1471      C1480   1.399       .  A
N1472      O1487   1.262       .  A
N1472      O1488   1.262       .  A
N1474      O1485   1.262       .  A
N1474      O1486   1.262       .  A
C1476      C1477   1.403       .  A
C1476      N1481   1.429       .  S
C1477      C1478   1.410       .  A
C1477      H1482   1.083       .  S
C1478      C1479   1.419       .  A
C1479      C1480   1.400       .  A
C1479      N1483   1.428       .  S
C1480      H1484   1.084       .  S
N1481      O1491   1.262       .  A
N1481      O1492   1.262       .  A
N1483      O1489   1.262       .  A
N1483      O1490   1.262       .  A
C1493      C1494   1.399       .  A
C1493      C1498   1.401       .  A
C1493      H1503   1.084       .  S
C1494      C1499   1.482       .  S
C1494      C1495   1.410       .  A
C1495      C1496   1.400       .  A
C1495      N1500   1.428       .  S
C1496      C1497   1.404       .  A
C1496      H1501   1.084       .  S
C1497      C1498   1.418       .  A
C1498      N1502   1.429       .  S
C1499      C1504   1.409       .  A
C1499      C1508   1.399       .  A
N1500      O1515   1.262       .  A
N1500      O1516   1.261       .  A
N1502      O1513   1.262       .  A
N1502      O1514   1.261       .  A
C1504      C1505   1.401       .  A
C1504      N1509   1.429       .  S
C1505      C1506   1.409       .  A
C1505      H1510   1.084       .  S
C1506      C1507   1.418       .  A
C1507      C1508   1.401       .  A
C1507      N1511   1.427       .  S
C1508      H1512   1.084       .  S
N1509      O1519   1.262       .  A
N1509      O1520   1.262       .  A
N1511      O1517   1.262       .  A
N1511      O1518   1.262       .  A
C1521      C1522   1.403       .  A
C1521      C1526   1.407       .  A
C1521      H1531   1.084       .  S
C1522      C1527   1.478       .  S
C1522      C1523   1.402       .  A
C1523      C1524   1.393       .  A
C1523      N1528   1.429       .  S
C1524      C1525   1.410       .  A
C1524      H1529   1.083       .  S
C1525      C1526   1.419       .  A
C1526      N1530   1.429       .  S
C1527      C1532   1.408       .  A
C1527      C1536   1.406       .  A
N1528      O1543   1.262       .  A
N1528      O1544   1.262       .  A
N1530      O1541   1.262       .  A
N1530      O1542   1.262       .  A
C1532      C1533   1.398       .  A
C1532      N1537   1.428       .  S
C1533      C1534   1.402       .  A
C1533      H1538   1.084       .  S
C1534      C1535   1.405       .  A
C1535      C1536   1.402       .  A
C1535      N1539   1.429       .  S
C1536      H1540   1.084       .  S
N1537      O1547   1.262       .  A
N1537      O1548   1.262       .  A
N1539      O1545   1.261       .  A
N1539      O1546   1.262       .  A
C1549      C1550   1.403       .  A
C1549      C1554   1.397       .  A
C1549      H1559   1.083       .  S
C1550      C1555   1.479       .  S
C1550      C1551   1.410       .  A
C1551      C1552   1.395   1_455  A
C1551      N1556   1.429       .  S
C1552      C1553   1.402       .  A
C1552      H1557   1.084       .  S
C1553      C1554   1.412   1_655  A
C1554      N1558   1.429       .  S
C1555      C1560   1.410       .  A
C1555      C1564   1.403       .  A
N1556      O1571   1.262       .  A
N1556      O1572   1.262       .  A
N1558      O1569   1.262       .  A
N1558      O1570   1.262       .  A
C1560      C1561   1.393       .  A
C1560      N1565   1.429       .  S
C1561      C1562   1.403       .  A
C1561      H1566   1.084       .  S
C1562      C1563   1.414       .  A
C1563      C1564   1.400       .  A
C1563      N1567   1.430       .  S
C1564      H1568   1.084       .  S
N1565      O1575   1.262       .  A
N1565      O1576   1.262       .  A
N1567      O1573   1.262       .  A
N1567      O1574   1.262   1_565  A
C1577      C1578   1.400       .  A
C1577      C1582   1.396       .  A
C1577      H1587   1.083       .  S
C1578      C1583   1.476       .  S
C1578      C1579   1.412       .  A
C1579      C1580   1.398       .  A
C1579      N1584   1.429       .  S
C1580      C1581   1.402       .  A
C1580      H1585   1.084       .  S
C1581      C1582   1.413       .  A
C1582      N1586   1.429       .  S
C1583      C1588   1.410       .  A
C1583      C1592   1.399       .  A
N1584      O1599   1.262       .  A
N1584      O1600   1.262       .  A
N1586      O1597   1.262       .  A
N1586      O1598   1.262       .  A
C1588      C1589   1.396       .  A
C1588      N1593   1.430       .  S
C1589      C1590   1.407       .  A
C1589      H1594   1.084       .  S
C1590      C1591   1.416       .  A
C1591      C1592   1.397       .  A
C1591      N1595   1.428       .  S
C1592      H1596   1.084       .  S
N1593      O1603   1.262       .  A
N1593      O1604   1.261       .  A
N1595      O1601   1.262       .  A
N1595      O1602   1.260       .  A
C1605      C1606   1.403       .  A
C1605      C1610   1.400   1_565  A
C1605      H1615   1.083       .  S
C1606      C1611   1.483       .  S
C1606      C1607   1.411       .  A
C1607      C1608   1.396       .  A
C1607      N1612   1.429       .  S
C1608      C1609   1.402   1_565  A
C1608      H1613   1.084       .  S
C1609      C1610   1.413       .  A
C1610      N1614   1.429       .  S
C1611      C1616   1.410       .  A
C1611      C1620   1.403       .  A
N1612      O1627   1.262       .  A
N1612      O1628   1.262       .  A
N1614      O1625   1.261       .  A
N1614      O1626   1.262       .  A
C1616      C1617   1.398       .  A
C1616      N1621   1.429       .  S
C1617      C1618   1.405       .  A
C1617      H1622   1.084       .  S
C1618      C1619   1.414       .  A
C1619      C1620   1.398       .  A
C1619      N1623   1.429       .  S
C1620      H1624   1.083       .  S
N1621      O1631   1.262       .  A
N1621      O1632   1.261       .  A
N1623      O1629   1.262       .  A
N1623      O1630   1.262       .  A
C1633      C1634   1.402       .  A
C1633      C1638   1.407       .  A
C1633      H1643   1.084       .  S
C1634      C1639   1.483       .  S
C1634      C1635   1.405       .  A
C1635      C1636   1.399       .  A
C1635      N1640   1.428       .  S
C1636      C1637   1.410       .  A
C1636      H1641   1.083       .  S
C1637      C1638   1.418       .  A
C1638      N1642   1.428       .  S
C1639      C1644   1.406       .  A
C1639      C1648   1.400       .  A
N1640      O1655   1.262       .  A
N1640      O1656   1.262       .  A
N1642      O1653   1.262       .  A
N1642      O1654   1.262       .  A
C1644      C1645   1.401       .  A
C1644      N1649   1.428       .  S
C1645      C1646   1.410       .  A
C1645      H1650   1.083       .  S
C1646      C1647   1.418       .  A
C1647      C1648   1.403       .  A
C1647      N1651   1.428       .  S
C1648      H1652   1.084       .  S
N1649      O1659   1.262       .  A
N1649      O1660   1.262       .  A
N1651      O1657   1.262       .  A
N1651      O1658   1.262       .  A
C1661      C1662   1.405       .  A
C1661      C1666   1.402       .  A
C1661      H1671   1.083       .  S
C1662      C1667   1.493       .  S
C1662      C1663   1.412       .  A
C1663      C1664   1.399       .  A
C1663      N1668   1.429       .  S
C1664      C1665   1.407       .  A
C1664      H1669   1.084       .  S
C1665      C1666   1.417       .  A
C1666      N1670   1.429       .  S
C1667      C1672   1.414       .  A
C1667      C1676   1.406       .  A
N1668      O1683   1.262       .  A
N1668      O1684   1.262       .  A
N1670      O1681   1.262       .  A
N1670      O1682   1.262       .  A
C1672      C1673   1.400       .  A
C1672      N1677   1.429       .  S
C1673      C1674   1.402       .  A
C1673      H1678   1.084       .  S
C1674      C1675   1.412       .  A
C1675      C1676   1.403       .  A
C1675      N1679   1.429       .  S
C1676      H1680   1.082       .  S
N1677      O1687   1.262       .  A
N1677      O1688   1.262       .  A
N1679      O1685   1.262       .  A
N1679      O1686   1.262       .  A
C1689      C1690   1.402       .  A
C1689      C1694   1.402       .  A
C1689      H1699   1.084       .  S
C1690      C1695   1.481       .  S
C1690      C1691   1.408       .  A
C1691      C1692   1.400       .  A
C1691      N1696   1.429       .  S
C1692      C1693   1.408       .  A
C1692      H1697   1.084   1_655  S
C1693      C1694   1.415       .  A
C1694      N1698   1.429       .  S
C1695      C1700   1.408       .  A
C1695      C1704   1.402       .  A
N1696      O1711   1.262       .  A
N1696      O1712   1.262       .  A
N1698      O1709   1.262       .  A
N1698      O1710   1.262       .  A
C1700      C1701   1.399   1_545  A
C1700      N1705   1.428       .  S
C1701      C1702   1.406       .  A
C1701      H1706   1.084       .  S
C1702      C1703   1.414       .  A
C1703      C1704   1.403   1_565  A
C1703      N1707   1.428       .  S
C1704      H1708   1.084       .  S
N1705      O1715   1.262       .  A
N1705      O1716   1.261       .  A
N1707      O1713   1.262       .  A
N1707      O1714   1.262       .  A
C1717      C1718   1.400       .  A
C1717      C1722   1.402       .  A
C1717      H1727   1.084       .  S
C1718      C1723   1.474       .  S
C1718      C1719   1.402       .  A
C1719      C1720   1.399       .  A
C1719      N1724   1.430       .  S
C1720      C1721   1.411       .  A
C1720      H1725   1.083       .  S
C1721      C1722   1.417       .  A
C1722      N1726   1.429       .  S
C1723      C1728   1.403       .  A
C1723      C1732   1.403       .  A
N1724      O1739   1.261       .  A
N1724      O1740   1.262       .  A
N1726      O1737   1.262       .  A
N1726      O1738   1.262       .  A
C1728      C1729   1.395       .  A
C1728      N1733   1.428       .  S
C1729      C1730   1.407       .  A
C1729      H1734   1.084       .  S
C1730      C1731   1.412       .  A
C1731      C1732   1.402       .  A
C1731      N1735   1.429       .  S
C1732      H1736   1.084       .  S
N1733      O1743   1.262       .  A
N1733      O1744   1.262       .  A
N1735      O1741   1.262       .  A
N1735      O1742   1.262       .  A
C1745      C1746   1.399       .  A
C1745      C1750   1.398       .  A
C1745      H1755   1.084       .  S
C1746      C1751   1.473       .  S
C1746      C1747   1.408       .  A
C1747      C1748   1.396       .  A
C1747      N1752   1.429       .  S
C1748      C1749   1.404       .  A
C1748      H1753   1.084       .  S
C1749      C1750   1.419       .  A
C1750      N1754   1.430       .  S
C1751      C1756   1.407       .  A
C1751      C1760   1.400       .  A
N1752      O1767   1.262       .  A
N1752      O1768   1.262       .  A
N1754      O1765   1.262       .  A
N1754      O1766   1.262       .  A
C1756      C1757   1.396       .  A
C1756      N1761   1.430       .  S
C1757      C1758   1.406   1_655  A
C1757      H1762   1.084   1_655  S
C1758      C1759   1.415   1_455  A
C1759      C1760   1.399       .  A
C1759      N1763   1.428   1_655  S
C1760      H1764   1.084       .  S
N1761      O1771   1.262       .  A
N1761      O1772   1.262       .  A
N1763      O1769   1.262       .  A
N1763      O1770   1.262       .  A
C1773      C1774   1.396       .  A
C1773      C1778   1.392       .  A
C1773      H1783   1.084       .  S
C1774      C1779   1.481       .  S
C1774      C1775   1.411       .  A
C1775      C1776   1.406       .  A
C1775      N1780   1.428       .  S
C1776      C1777   1.406       .  A
C1776      H1781   1.083       .  S
C1777      C1778   1.421       .  A
C1778      N1782   1.430       .  S
C1779      C1784   1.411       .  A
C1779      C1788   1.399       .  A
N1780      O1795   1.262       .  A
N1780      O1796   1.262       .  A
N1782      O1793   1.262       .  A
N1782      O1794   1.262       .  A
C1784      C1785   1.398       .  A
C1784      N1789   1.429       .  S
C1785      C1786   1.403       .  A
C1785      H1790   1.084       .  S
C1786      C1787   1.420       .  A
C1787      C1788   1.400       .  A
C1787      N1791   1.430       .  S
C1788      H1792   1.084       .  S
N1789      O1799   1.262       .  A
N1789      O1800   1.262       .  A
N1791      O1797   1.262       .  A
N1791      O1798   1.262       .  A
