geometry optimzed in LAMMPS
_audit_creation_date              2020-12-01 
_audit_creation_method            'lammps2cif' 
_symmetry_space_group_name_H-M    'P1' 
_symmetry_Int_Tables_number       1 
_symmetry_cell_setting            triclinic 
loop_ 
_symmetry_equiv_pos_as_xyz 
  x,y,z 
_cell_length_a                    45.28427064 
_cell_length_b                    45.266421012644585 
_cell_length_c                    31.76653166393311 
_cell_angle_alpha                 90.01098910162753 
_cell_angle_beta                  89.70081039359859 
_cell_angle_gamma                 89.97980206447211 
loop_ 
_atom_site_label 
_atom_site_type_symbol 
_atom_site_fract_x 
_atom_site_fract_y 
_atom_site_fract_z 
_atom_site_charge 
O1          O  0.41953275  0.08364255  0.90433996    -0.83100
O2          O  0.44869055  0.12155447  0.95409060    -0.80100
C3          C  0.46936263  0.13034210  0.97704236     1.00400
O4          O  0.49574250  0.12824671  0.96465475    -0.80200
O5          O  0.00531036  0.06809666  0.97101329    -0.82800
C6          C  0.50409883  0.04096252  0.96202737     1.04900
O7          O  0.50266859  0.03247029  0.92467486    -0.75600
O8          O  0.44442213  0.04369803  0.92077432    -0.75700
C9          C  0.42213490  0.05996019  0.92529219     1.04900
O10         O  0.45066977  0.10744382  0.83092988    -0.83100
O11         O  0.47903803  0.14776957  0.88096233    -0.80100
C12         C  0.00653516  0.14872570  0.87269440     1.00400
O13         O  0.02361459  0.12799335  0.88332457    -0.80200
O14         O  0.03997270  0.07000444  0.89512818    -0.82800
C15         C  0.03756550  0.05581356  0.86106511     1.04900
O16         O  0.01270449  0.05311342  0.84321655    -0.75600
O17         O  0.45076483  0.05905842  0.83342995    -0.75700
C18         C  0.44621737  0.08277709  0.81386665     1.04800
Cr19       Cr  0.45186580  0.11319494  0.89283086     1.93700
Cr20       Cr  0.01369395  0.09785949  0.92631782     1.93200
Cr21       Cr  0.47756469  0.05027707  0.88128211     1.39100
O22         O  0.48120991  0.08745772  0.89917934    -1.20800
O23         O  0.42812597  0.08937907  0.60170332    -0.83100
O24         O  0.38962163  0.06015267  0.55305982    -0.80100
C25         C  0.38068573  0.03931451  0.53042886     1.00400
O26         O  0.38274485  0.01297968  0.54303558    -0.80200
O27         O  0.44260587  0.50270355  0.53748775    -0.82800
C28         C  0.46965305  0.00396490  0.54646820     1.04900
O29         O  0.47787519  0.00491243  0.58393482    -0.75600
O30         O  0.46769015  0.06350130  0.58577050    -0.75700
C31         C  0.45191087  0.08605150  0.58091242     1.04900
O32         O  0.40362524  0.05966313  0.67612815    -0.83100
O33         O  0.36293488  0.03110684  0.62681117    -0.80100
C34         C  0.36147913  0.50364845  0.63520785     1.00400
O35         O  0.38206804  0.48619375  0.62505135    -0.80200
O36         O  0.44001256  0.46913910  0.61487341    -0.82800
C37         C  0.45367976  0.47230408  0.64926762     1.04900
O38         O  0.45638903  0.49757471  0.66596477    -0.75600
O39         O  0.45194189  0.05964442  0.67299731    -0.75700
C40         C  0.42830032  0.06440070  0.69281438     1.04800
Cr41       Cr  0.39792711  0.05771208  0.61427192     1.93700
Cr42       Cr  0.41262482  0.49515510  0.58221171     1.93200
Cr43       Cr  0.46036027  0.03145645  0.62637034     1.39100
O44         O  0.42323598  0.02797739  0.60853008    -1.20800
O45         O  0.05997629  0.47237377  0.08716690    -0.83100
O46         O  0.00172199  0.48353961  0.08325577    -0.80100
C47         C  0.00029503  0.47502604  0.04591236     1.00400
O48         O  0.49909970  0.44788641  0.03695469    -0.80200
O49         O  0.00872033  0.38774689  0.04337216    -0.82800
C50         C  0.03509822  0.38568029  0.03096565     1.04900
O51         O  0.05576653  0.39450563  0.05389378    -0.75600
O52         O  0.08490328  0.43245480  0.10360626    -0.75700
C53         C  0.08227690  0.45613083  0.08264594     1.04900
O54         O  0.05364848  0.45703334  0.17452973    -0.83100
O55         O  0.49170433  0.46292882  0.16473519    -0.80100
C56         C  0.46684582  0.46020890  0.14688590     1.00400
O57         O  0.46444695  0.44599064  0.11284501    -0.80200
O58         O  0.48086406  0.38801818  0.12471235    -0.82800
C59         C  0.49796439  0.36730186  0.13533958     1.04900
O60         O  0.02545841  0.36828061  0.12705229    -0.75600
O61         O  0.05380510  0.40864722  0.17704318    -0.75700
C62         C  0.05823251  0.43332184  0.19409602     1.04800
Cr63       Cr  0.02684134  0.46577631  0.12666697     1.93700
Cr64       Cr  0.49074808  0.41813960  0.08168318     1.93200
Cr65       Cr  0.05259792  0.40287771  0.11514892     1.39100
O66         O  0.02322773  0.42858502  0.10879955    -1.20800
O67         O  0.03682836  0.45258090  0.42223027    -0.83100
O68         O  0.02662129  0.51116889  0.42402142    -0.80100
C69         C  0.03485657  0.01214703  0.46148066     1.00400
O70         O  0.06190611  0.01342020  0.47044151    -0.80200
O71         O  0.12176285  0.00314729  0.46486738    -0.82800
C72         C  0.12381528  0.47681861  0.47750344     1.04900
O73         O  0.11488580  0.45596868  0.45488908    -0.75600
O74         O  0.07639042  0.42670940  0.40627088    -0.75700
C75         C  0.05261118  0.43003208  0.42707776     1.04900
O76         O  0.05255166  0.45641199  0.33498834    -0.83100
O77         O  0.04807798  0.01847897  0.34197299    -0.80100
C78         C  0.05078603  0.04375800  0.35864431     1.00400
O79         O  0.06446775  0.04694396  0.39302244    -0.80200
O80         O  0.12241494  0.02990087  0.38282606    -0.82800
C81         C  0.14301091  0.01244899  0.37268992     1.04900
O82         O  0.14156366  0.48499488  0.38111644    -0.75600
O83         O  0.10086752  0.45642350  0.33182237    -0.75700
C84         C  0.07618895  0.45167809  0.31514943     1.04800
Cr85       Cr  0.04413334  0.48461316  0.38159901     1.93700
Cr86       Cr  0.09187177  0.02095133  0.42569154     1.93200
Cr87       Cr  0.10657719  0.45838551  0.39367707     1.39100
O88         O  0.08126122  0.48811415  0.39941129    -1.20800
O89         O  0.17669674  0.42536944  0.90505232    -0.83100
O90         O  0.13903008  0.45511626  0.95496622    -0.80100
C91         C  0.13018953  0.47599483  0.97773240     1.00400
O92         O  0.13223860  0.00226653  0.96499975    -0.80200
O93         O  0.19234874  0.01158843  0.97102984    -0.82800
C94         C  0.21947604  0.01012873  0.96199362     1.04900
O95         O  0.22807468  0.50844097  0.92463061    -0.75600
O96         O  0.21671313  0.45019386  0.92105813    -0.75700
C97         C  0.20037545  0.42799834  0.92580492     1.04900
O98         O  0.15300335  0.45600383  0.83169306    -0.83100
O99         O  0.11283215  0.48501618  0.88180793    -0.80100
C100        C  0.11200471  0.01244508  0.87317926     1.00400
O101        O  0.13280354  0.02952673  0.88342844    -0.80200
O102        O  0.19078510  0.04574171  0.89496373    -0.82800
C103        C  0.20502330  0.04303689  0.86086925     1.04900
O104        O  0.20763197  0.01803647  0.84314825    -0.75600
O105        O  0.20138948  0.45602768  0.83372727    -0.75700
C106        C  0.17763722  0.45130562  0.81446478     1.04800
Cr107      Cr  0.14729445  0.45775841  0.89360170     1.93700
Cr108      Cr  0.16276767  0.01980454  0.92640454     1.93200
Cr109      Cr  0.21027400  0.48312043  0.88140676     1.39100
O110        O  0.17310794  0.48705972  0.89947606    -1.20800
O111        O  0.16916548  0.43208062  0.60207709    -0.83100
O112        O  0.19907785  0.39436349  0.55255547    -0.80100
C113        C  0.22000226  0.38571930  0.52964040     1.00400
O114        O  0.24625345  0.38790578  0.54218933    -0.80200
O115        O  0.25538194  0.44803361  0.53622566    -0.82800
C116        C  0.25400510  0.47509550  0.54543235     1.04900
O117        O  0.25228621  0.48352338  0.58278646    -0.75600
O118        O  0.19401489  0.47226811  0.58636540    -0.75700
C119        C  0.17181435  0.45598175  0.58154991     1.04900
O120        O  0.19973240  0.40829850  0.67582373    -0.83100
O121        O  0.22899395  0.36827038  0.62582279    -0.80100
C122        C  0.25645366  0.36753479  0.63410194     1.00400
O123        O  0.27343522  0.38839316  0.62360644    -0.80200
O124        O  0.28951108  0.44637068  0.61208930    -0.82800
C125        C  0.28672687  0.46042613  0.64626449     1.04900
O126        O  0.26169082  0.46284411  0.66409485    -0.75600
O127        O  0.19966529  0.45668213  0.67359024    -0.75700
C128        C  0.19514567  0.43291150  0.69306400     1.04800
Cr129      Cr  0.20159698  0.40265845  0.61386745     1.93700
Cr130      Cr  0.26364546  0.41838039  0.58072886     1.93200
Cr131      Cr  0.22685631  0.46564035  0.62592553     1.39100
O132        O  0.23084412  0.42854273  0.60780371    -1.20800
O133        O  0.28770199  0.06589525  0.08694675    -0.83100
O134        O  0.27633334  0.00765152  0.08335172    -0.80100
C135        C  0.28491255  0.00598703  0.04597799     1.00400
O136        O  0.31203565  0.50452935  0.03691420    -0.80200
O137        O  0.37215270  0.01382699  0.04289769    -0.82800
C138        C  0.37421137  0.04010264  0.03018920     1.04900
O139        O  0.36538693  0.06097523  0.05297800    -0.75600
O140        O  0.32773252  0.09071008  0.10291656    -0.75700
C141        C  0.30404611  0.08808406  0.08218072     1.04900
O142        O  0.30305684  0.06003958  0.17426090    -0.83100
O143        O  0.29681530  0.49802945  0.16480889    -0.80100
C144        C  0.29941709  0.47303507  0.14706760     1.00400
O145        O  0.31363118  0.47034320  0.11295136    -0.80200
O146        O  0.37161789  0.48653932  0.12444411    -0.82800
C147        C  0.39241776  0.50361418  0.13471259     1.04900
O148        O  0.39159288  0.03104862  0.12611506    -0.75600
O149        O  0.35144328  0.06006859  0.17625717    -0.75700
C150        C  0.32681586  0.06477044  0.19350179     1.04800
Cr151      Cr  0.29415525  0.03295812  0.12657487     1.93700
Cr152      Cr  0.34163624  0.49628625  0.08150471     1.93200
Cr153      Cr  0.35713442  0.05831790  0.11434444     1.39100
O154        O  0.33131426  0.02902203  0.10847092    -1.20800
O155        O  0.31043788  0.04389851  0.42162350    -0.83100
O156        O  0.25216472  0.03262906  0.42515664    -0.80100
C157        C  0.25040478  0.04107182  0.46250059     1.00400
O158        O  0.24902120  0.06813670  0.47168575    -0.80200
O159        O  0.25815702  0.12825939  0.46569305    -0.82800
C160        C  0.28440083  0.13043886  0.47827629     1.04900
O161        O  0.30533848  0.12179766  0.45538250    -0.75600
O162        O  0.33528619  0.08408316  0.40589564    -0.75700
C163        C  0.33263967  0.06018488  0.42643055     1.04900
O164        O  0.30481786  0.05945633  0.33438270    -0.83100
O165        O  0.24279161  0.05327557  0.34382582    -0.80100
C166        C  0.21774607  0.05569584  0.36162808     1.00400
O167        O  0.21494078  0.06976980  0.39578397    -0.80200
O168        O  0.23101677  0.12774570  0.38424413    -0.82800
C169        C  0.24799854  0.14860876  0.37377073     1.04900
O170        O  0.27545337  0.14787867  0.38208153    -0.75600
O171        O  0.30473767  0.10783963  0.33211448    -0.75700
C172        C  0.30933236  0.08322115  0.31489195     1.04800
Cr173      Cr  0.27760990  0.05050478  0.38203012     1.93700
Cr174      Cr  0.24078594  0.09777387  0.42715218     1.93200
Cr175      Cr  0.30284980  0.11349486  0.39406940     1.39100
O176        O  0.27360428  0.08760691  0.40012168    -1.20800
O177        O  0.33497051  0.18269886  0.90525109    -0.83100
O178        O  0.30539136  0.14455816  0.95457491    -0.80100
C179        C  0.28450260  0.13577016  0.97743456     1.00400
O180        O  0.25823765  0.13787247  0.96496897    -0.80200
O181        O  0.24860138  0.19795557  0.97120542    -0.82800
C182        C  0.24985159  0.22506698  0.96217028     1.04900
O183        O  0.25130803  0.23349146  0.92478808    -0.75600
O184        O  0.30974728  0.22255963  0.92161639    -0.75700
C185        C  0.33210002  0.20642272  0.92612103     1.04900
O186        O  0.30473238  0.15892098  0.83145131    -0.83100
O187        O  0.27587613  0.11841638  0.88111862    -0.80100
C188        C  0.24843585  0.11738223  0.87285396     1.00400
O189        O  0.23120680  0.13803747  0.88351979    -0.80200
O190        O  0.21470979  0.19592046  0.89496782    -0.82800
C191        C  0.21750620  0.20992700  0.86077352     1.04900
O192        O  0.24258655  0.21272462  0.84323022    -0.75600
O193        O  0.30467661  0.20728081  0.83436008    -0.75700
C194        C  0.30941625  0.18365066  0.81463772     1.04800
Cr195      Cr  0.30286742  0.15302785  0.89333266     1.93700
Cr196      Cr  0.24066006  0.16819022  0.92649661     1.93200
Cr197      Cr  0.27713945  0.21584565  0.88176507     1.39100
O198        O  0.27340653  0.17865493  0.89957074    -1.20800
O199        O  0.32697242  0.17534622  0.60498669    -0.83100
O200        O  0.36410187  0.20344772  0.55313489    -0.80100
C201        C  0.37265802  0.22357346  0.52894649     1.00400
O202        O  0.37132001  0.25023576  0.54027749    -0.80200
O203        O  0.31174211  0.26050852  0.53599551    -0.82800
C204        C  0.28478672  0.25980074  0.54568565     1.04900
O205        O  0.27650199  0.25870731  0.58321681    -0.75600
O206        O  0.28750795  0.20042256  0.58734224    -0.75700
C207        C  0.30362876  0.17799329  0.58340780     1.04900
O208        O  0.35199408  0.20743621  0.67632268    -0.83100
O209        O  0.39202424  0.23477447  0.62320699    -0.80100
C210        C  0.39346267  0.26247517  0.62976327     1.00400
O211        O  0.37239244  0.27940446  0.62051571    -0.80200
O212        O  0.31444391  0.29575907  0.61115249    -0.82800
C213        C  0.30054722  0.29347015  0.64566723     1.04900
O214        O  0.29794216  0.26868141  0.66395779    -0.75600
O215        O  0.30362161  0.20668594  0.67430198    -0.75700
C216        C  0.32744270  0.20248772  0.69366098     1.04800
Cr217      Cr  0.35699190  0.20760360  0.61426092     1.93700
Cr218      Cr  0.34175538  0.26910772  0.57930596     1.93200
Cr219      Cr  0.29446862  0.23354260  0.62644154     1.39100
O220        O  0.33146344  0.23699608  0.60770061    -1.20800
O221        O  0.21685821  0.31568455  0.42065003    -0.83100
O222        O  0.22789528  0.25739991  0.42473033    -0.80100
C223        C  0.21960093  0.25627546  0.46225505     1.00400
O224        O  0.19264365  0.25555227  0.47193035    -0.80200
O225        O  0.13306706  0.26580844  0.46763181    -0.82800
C226        C  0.13172425  0.29246549  0.47898804     1.04900
O227        O  0.14026588  0.31260533  0.45481179    -0.75600
O228        O  0.17738846  0.34074889  0.40299137    -0.75700
C229        C  0.20073288  0.33811187  0.42457193     1.04900
O230        O  0.20077282  0.30944655  0.33368195    -0.83100
O231        O  0.20648142  0.24745328  0.34396905    -0.80100
C232        C  0.20388215  0.22265408  0.36223105     1.00400
O233        O  0.18997582  0.22034046  0.39673484    -0.80200
O234        O  0.13202262  0.23667219  0.38736199    -0.82800
C235        C  0.11094525  0.25359458  0.37812458     1.04900
O236        O  0.11236945  0.28129296  0.38470640    -0.75600
O237        O  0.15240199  0.30866310  0.33162156    -0.75700
C238        C  0.17695753  0.31362541  0.31430156     1.04800
Cr239      Cr  0.20992631  0.28257538  0.38152138     1.93700
Cr240      Cr  0.16264512  0.24696410  0.42859594     1.93200
Cr241      Cr  0.14738795  0.30847639  0.39368372     1.39100
O242        O  0.17292908  0.27909428  0.40023754    -1.20800
O243        O  0.19474717  0.29347466  0.08640816    -0.83100
O244        O  0.25318456  0.28256557  0.08318483    -0.80100
C245        C  0.25460399  0.29097848  0.04579454     1.00400
O246        O  0.25584620  0.31808770  0.03674164    -0.80200
O247        O  0.24621656  0.37817673  0.04295776    -0.82800
C248        C  0.21994721  0.38027979  0.03051389     1.04900
O249        O  0.19906933  0.37148510  0.05338702    -0.75600
O250        O  0.16951832  0.33334089  0.10273038    -0.75700
C251        C  0.17239728  0.30961142  0.08187754     1.04900
O252        O  0.19984953  0.30878122  0.17365167    -0.83100
O253        O  0.26194405  0.30335882  0.16472199    -0.80100
C254        C  0.28701384  0.30615631  0.14714548     1.00400
O255        O  0.28978475  0.32014989  0.11293692    -0.80200
O256        O  0.27327595  0.37803025  0.12438169    -0.82800
C257        C  0.25604243  0.39867626  0.13507273     1.04900
O258        O  0.22859903  0.39763602  0.12682972    -0.75600
O259        O  0.19974686  0.35714283  0.17651163    -0.75700
C260        C  0.19507321  0.33241750  0.19334220     1.04800
Cr261      Cr  0.22736963  0.30021387  0.12622600     1.93700
Cr262      Cr  0.26381036  0.34786647  0.08142593     1.93200
Cr263      Cr  0.20161137  0.36302151  0.11462984     1.39100
O264        O  0.23107947  0.33740123  0.10839144    -1.20800
O265        O  0.07901076  0.34052986  0.90513039    -0.83100
O266        O  0.11613917  0.31046552  0.95486868    -0.80100
C267        C  0.12478947  0.28951030  0.97748820     1.00400
O268        O  0.12261645  0.26326052  0.96470785    -0.80200
O269        O  0.06237471  0.25431460  0.97097962    -0.82800
C270        C  0.03530632  0.25595655  0.96201994     1.04900
O271        O  0.02693094  0.25781210  0.92469873    -0.75600
O272        O  0.03875827  0.31595665  0.92125473    -0.75700
C273        C  0.05522755  0.33802731  0.92602353     1.04900
O274        O  0.10297743  0.30970410  0.83167024    -0.83100
O275        O  0.14254381  0.28046825  0.88163649    -0.80100
C276        C  0.14316645  0.25308670  0.87272320     1.00400
O277        O  0.12221739  0.23611419  0.88300725    -0.80200
O278        O  0.06412015  0.22024868  0.89485383    -0.82800
C279        C  0.05011215  0.22305147  0.86080106     1.04900
O280        O  0.04774196  0.24808558  0.84314279    -0.75600
O281        O  0.05458333  0.31005156  0.83385926    -0.75700
C282        C  0.07848443  0.31451463  0.81449681     1.04800
Cr283      Cr  0.10824005  0.30793183  0.89355217     1.93700
Cr284      Cr  0.09214611  0.24596406  0.92621286     1.93200
Cr285      Cr  0.04516760  0.28301812  0.88148620     1.39100
O286        O  0.08218559  0.27880460  0.89943461    -1.20800
O287        O  0.08043204  0.34923085  0.57733300    -0.83100
O288        O  0.04041911  0.39277036  0.56490415    -0.80100
C289        C  0.02955073  0.38285842  0.53112664     1.00400
O290        O  0.01198130  0.36141116  0.53203279    -0.80200
O291        O  0.48944515  0.30816807  0.55520330    -0.82800
C292        C  0.00941331  0.28957716  0.54698789     1.04900
O293        O  0.03314898  0.28882723  0.56696207    -0.75600
O294        O  0.07915538  0.30801107  0.61283438    -0.75700
C295        C  0.08915483  0.32314105  0.58254567     1.04900
O296        O  0.07060206  0.35177227  0.66829767    -0.83100
O297        O  0.02488058  0.39149393  0.65327782    -0.80100
C298        C  0.49993583  0.39996082  0.64031504     1.00400
O299        O  0.48797754  0.38799345  0.60857147    -0.80200
O300        O  0.46927970  0.33230520  0.63283047    -0.82800
C301        C  0.47036464  0.30515957  0.64156551     1.04900
O302        O  0.49411450  0.29077805  0.63698636    -0.75600
O303        O  0.03946863  0.31602806  0.68337752    -0.75700
C304        C  0.05961485  0.33349129  0.69423852     1.04800
Cr305      Cr  0.05233912  0.36917518  0.61584716     1.93700
Cr306      Cr  0.49225672  0.34724882  0.58410539     1.93200
Cr307      Cr  0.03576679  0.30372924  0.62444086     1.39100
O308        O  0.02644960  0.34013327  0.60873575    -1.20800
O309        O  0.42528624  0.20801847  0.39516487    -0.83100
O310        O  0.47131495  0.22720499  0.44099997    -0.80100
C311        C  0.49506557  0.22646463  0.46093991     1.00400
O312        O  0.01503525  0.20788150  0.45269489    -0.80200
O313        O  0.49252471  0.15463757  0.47590107    -0.82800
C314        C  0.47495383  0.13319230  0.47683448     1.04900
O315        O  0.46406612  0.12327320  0.44307398    -0.75600
O316        O  0.42403336  0.16679946  0.43067146    -0.75700
C317        C  0.41529322  0.19288293  0.42545180     1.04900
O318        O  0.46494258  0.20000573  0.32459314    -0.83100
O319        O  0.01031311  0.22526577  0.37093425    -0.80100
C320        C  0.03406208  0.21088823  0.36632035     1.00400
O321        O  0.03515486  0.18374121  0.37504396    -0.80200
O322        O  0.01648592  0.12805144  0.39934171    -0.82800
C323        C  0.00451167  0.11607950  0.36761472     1.04900
O324        O  0.47955740  0.12454005  0.35468111    -0.75600
O325        O  0.43382492  0.16425277  0.33970214    -0.75700
C326        C  0.44479657  0.18253632  0.31375209     1.04800
Cr327      Cr  0.46867001  0.21230577  0.38352223     1.93700
Cr328      Cr  0.01221353  0.16879760  0.42380277     1.93200
Cr329      Cr  0.45211504  0.14685779  0.39213704     1.39100
O330        O  0.47800285  0.17590443  0.39921675    -1.20800
O331        O  0.46575205  0.20003014  0.08680278    -0.83100
O332        O  0.47764000  0.25816313  0.08336810    -0.80100
C333        C  0.46929378  0.26002339  0.04603434     1.00400
O334        O  0.44223291  0.26168201  0.03703328    -0.80200
O335        O  0.38197407  0.25278759  0.04321241    -0.82800
C336        C  0.37976530  0.22653460  0.03045641     1.04900
O337        O  0.38838764  0.20557802  0.05309480    -0.75600
O338        O  0.42546767  0.17549533  0.10288314    -0.75700
C339        C  0.44926176  0.17797725  0.08201084     1.04900
O340        O  0.44987666  0.20595833  0.17417510    -0.83100
O341        O  0.45678083  0.26792216  0.16488763    -0.80100
C342        C  0.45443555  0.29295585  0.14721829     1.00400
O343        O  0.44045424  0.29576110  0.11314371    -0.80200
O344        O  0.38233436  0.27995051  0.12490643    -0.82800
C345        C  0.36136832  0.26299614  0.13518361     1.04900
O346        O  0.36197401  0.23561231  0.12628474    -0.75600
O347        O  0.40148234  0.20635149  0.17630341    -0.75700
C348        C  0.42595953  0.20151653  0.19350594     1.04800
Cr349      Cr  0.45934795  0.23297899  0.12655756     1.93700
Cr350      Cr  0.41243165  0.27006483  0.08174948     1.93200
Cr351      Cr  0.39625966  0.20811862  0.11441674     1.39100
O352        O  0.42234464  0.23722184  0.10855625    -1.20800
C353        C  0.42743377  0.19109174  0.23602679    -0.11000
C354        C  0.43343619  0.18497830  0.27188290    -0.12600
C355        C  0.00016905  0.24836051  0.49160077    -0.11000
C356        C  0.00432295  0.26768252  0.51632041    -0.12600
C357        C  0.01298731  0.25678191  0.99309822    -0.11000
C358        C  0.49163537  0.25918861  0.01498841    -0.07800
C359        C  0.07096177  0.33104400  0.73611781    -0.11000
C360        C  0.07697443  0.32493464  0.77197344    -0.12600
C361        C  0.31236951  0.28924090  0.15972552    -0.11000
C362        C  0.33516497  0.27583769  0.15383332    -0.12600
C363        C  0.13818400  0.29575453  0.01774344    -0.11000
C364        C  0.15142478  0.30180236  0.04966363    -0.12600
C365        C  0.10785627  0.30984776  0.55102335    -0.11000
C366        C  0.11955527  0.30043693  0.51944273    -0.12600
C367        C  0.06110016  0.22686226  0.35895079    -0.11000
C368        C  0.08393318  0.24034522  0.36344545    -0.12600
C369        C  0.17865545  0.32408381  0.27179138    -0.11000
C370        C  0.18455078  0.33029292  0.23584402    -0.12600
C371        C  0.26265260  0.25912354  0.51505097    -0.11000
C372        C  0.24172742  0.25693541  0.49290122    -0.12600
C373        C  0.38484457  0.21558060  0.48851262    -0.11000
C374        C  0.39656738  0.20616372  0.45695386    -0.12600
C375        C  0.42048232  0.27571721  0.64442864    -0.11000
C376        C  0.44332030  0.28919218  0.64892141    -0.12600
C377        C  0.25089006  0.24734824  0.99313814    -0.11000
C378        C  0.25353632  0.26868851  0.01484097    -0.12600
C379        C  0.31990121  0.18579000  0.77211907    -0.11000
C380        C  0.32576180  0.19201665  0.73616674    -0.12600
C381        C  0.35309162  0.21423145  0.95831211    -0.11000
C382        C  0.36635413  0.22028689  0.99021232    -0.12600
C383        C  0.19216590  0.22685669  0.84817446    -0.11000
C384        C  0.16937294  0.24026436  0.85405918    -0.12600
C385        C  0.29061910  0.14374909  0.51871401    -0.11000
C386        C  0.29639147  0.15689472  0.55091516    -0.12600
C387        C  0.22109420  0.19730338  0.35000142    -0.11000
C388        C  0.23499216  0.17479453  0.35558581    -0.12600
C389        C  0.26865101  0.42500198  0.15353544    -0.11000
C390        C  0.28214453  0.44773736  0.15939333    -0.12600
C391        C  0.32503557  0.07533470  0.23599800    -0.11000
C392        C  0.31941505  0.08137476  0.27211570    -0.12600
C393        C  0.29658003  0.10909762  0.04976101    -0.11000
C394        C  0.29078106  0.12235182  0.01770680    -0.12600
C395        C  0.21376023  0.37239271  0.48922093    -0.11000
C396        C  0.20797353  0.35922762  0.45704111    -0.12600
C397        C  0.26946154  0.34134887  0.65228468    -0.11000
C398        C  0.28335084  0.31883576  0.65787912    -0.12600
C399        C  0.25332504  0.49736327  0.51467265    -0.11000
C400        C  0.25104917  0.01881448  0.49327667    -0.12600
C401        C  0.20784356  0.40697582  0.95821291    -0.11000
C402        C  0.21365150  0.39370918  0.99025405    -0.12600
C403        C  0.26277491  0.00685544  0.01495704    -0.11000
C404        C  0.24159924  0.00928104  0.99303585    -0.12600
C405        C  0.18506198  0.43474181  0.73584009    -0.11000
C406        C  0.17943273  0.44076050  0.77196158    -0.12600
C407        C  0.22231509  0.06832509  0.84855203    -0.11000
C408        C  0.23582172  0.09105437  0.85440223    -0.12600
C409        C  0.04416058  0.40931687  0.45944808    -0.11000
C410        C  0.03710073  0.39638192  0.49131713    -0.12600
C411        C  0.03375123  0.06871856  0.34467783    -0.11000
C412        C  0.01911801  0.09091801  0.34886223    -0.12600
C413        C  0.13739088  0.47029351  0.51764410    -0.11000
C414        C  0.15073675  0.46393071  0.54941449    -0.12600
C415        C  0.19252021  0.03839014  0.34925625    -0.11000
C416        C  0.16970677  0.02487337  0.35472845    -0.12600
C417        C  0.04174848  0.37226534  0.99069247    -0.11000
C418        C  0.04774349  0.35903239  0.95858840    -0.12600
C419        C  0.47169248  0.31820086  0.15961035    -0.11000
C420        C  0.48519359  0.34096467  0.15376114    -0.12600
C421        C  0.44139368  0.47736757  0.15898589    -0.11000
C422        C  0.41866370  0.49084696  0.15307402    -0.12600
C423        C  0.06835030  0.43524133  0.23669514    -0.11000
C424        C  0.07418246  0.44115735  0.27269466    -0.12600
C425        C  0.11673858  0.46966554  0.01813416    -0.11000
C426        C  0.10342726  0.46371884  0.05023778    -0.12600
C427        C  0.48532425  0.42512524  0.65905269    -0.11000
C428        C  0.47069746  0.44732972  0.66322979    -0.12600
C429        C  0.46742118  0.11968198  0.51665770    -0.11000
C430        C  0.46036766  0.10675876  0.54853778    -0.12600
C431        C  0.49185238  0.00615031  0.51526144    -0.11000
C432        C  0.01266724  0.00998148  0.49270401    -0.12600
C433        C  0.36709169  0.04586037  0.49030572    -0.11000
C434        C  0.35372811  0.05223379  0.45855361    -0.12600
C435        C  0.33478140  0.49122525  0.65316319    -0.11000
C436        C  0.31196422  0.47771517  0.65863344    -0.12600
C437        C  0.40097296  0.05238588  0.95768922    -0.11000
C438        C  0.38765736  0.04644152  0.98978878    -0.12600
C439        C  0.00106000  0.49729919  0.01485384    -0.11000
C440        C  0.00332389  0.01867383  0.99306353    -0.12600
C441        C  0.43611520  0.08087004  0.77125951    -0.11000
C442        C  0.43029623  0.07494118  0.73526024    -0.12600
C443        C  0.45673249  0.15697425  0.04943709    -0.11000
C444        C  0.46271725  0.14374690  0.01732424    -0.12600
C445        C  0.01933256  0.17505268  0.85428419    -0.11000
C446        C  0.03284774  0.19780688  0.84843237    -0.12600
C447        C  0.06301601  0.03866849  0.84892408    -0.11000
C448        C  0.08575417  0.02519983  0.85481668    -0.12600
O449        O  0.41953276  0.58364257  0.90433996    -0.83100
O450        O  0.44869059  0.62155444  0.95409061    -0.80100
C451        C  0.46936267  0.63034218  0.97704228     1.00400
O452        O  0.49574253  0.62824675  0.96465472    -0.80200
O453        O  0.00531038  0.56809666  0.97101332    -0.82800
C454        C  0.50409885  0.54096257  0.96202737     1.04900
O455        O  0.50266863  0.53247034  0.92467486    -0.75600
O456        O  0.44442218  0.54369806  0.92077433    -0.75700
C457        C  0.42213485  0.55996021  0.92529219     1.04900
O458        O  0.45066979  0.60744384  0.83092987    -0.83100
O459        O  0.47903807  0.64776958  0.88096234    -0.80100
C460        C  0.00653518  0.64872572  0.87269439     1.00400
O461        O  0.02361461  0.62799335  0.88332460    -0.80200
O462        O  0.03997274  0.57000448  0.89512818    -0.82800
C463        C  0.03756559  0.55581359  0.86106511     1.04900
O464        O  0.01270453  0.55311343  0.84321653    -0.75600
O465        O  0.45076487  0.55905843  0.83342994    -0.75700
C466        C  0.44621741  0.58277711  0.81386666     1.04800
Cr467      Cr  0.45186584  0.61319495  0.89283086     1.93700
Cr468      Cr  0.01369399  0.59785950  0.92631785     1.93200
Cr469      Cr  0.47756473  0.55027709  0.88128212     1.39100
O470        O  0.48120994  0.58745774  0.89917931    -1.20800
O471        O  0.42812596  0.58937904  0.60170329    -0.83100
O472        O  0.38962163  0.56015268  0.55305980    -0.80100
C473        C  0.38068554  0.53931465  0.53042887     1.00400
O474        O  0.38274469  0.51297971  0.54303564    -0.80200
O475        O  0.44260602  0.00270355  0.53748773    -0.82800
C476        C  0.46965293  0.50396487  0.54646819     1.04900
O477        O  0.47787510  0.50491246  0.58393481    -0.75600
O478        O  0.46769014  0.56350127  0.58577051    -0.75700
C479        C  0.45191089  0.58605149  0.58091242     1.04900
O480        O  0.40362526  0.55966315  0.67612815    -0.83100
O481        O  0.36293483  0.53110686  0.62681122    -0.80100
C482        C  0.36147912  0.00364842  0.63520783     1.00400
O483        O  0.38206816  0.98619375  0.62505135    -0.80200
O484        O  0.44001275  0.96913911  0.61487345    -0.82800
C485        C  0.45367989  0.97230409  0.64926771     1.04900
O486        O  0.45638910  0.99757474  0.66596487    -0.75600
O487        O  0.45194190  0.55964440  0.67299729    -0.75700
C488        C  0.42830029  0.56440072  0.69281436     1.04800
Cr489      Cr  0.39792708  0.55771208  0.61427191     1.93700
Cr490      Cr  0.41262496  0.99515508  0.58221177     1.93200
Cr491      Cr  0.46036019  0.53145643  0.62637032     1.39100
O492        O  0.42323588  0.52797738  0.60853006    -1.20800
O493        O  0.05997629  0.97237379  0.08716696    -0.83100
O494        O  0.00172199  0.98353960  0.08325575    -0.80100
C495        C  0.00029506  0.97502597  0.04591230     1.00400
O496        O  0.49909968  0.94788638  0.03695477    -0.80200
O497        O  0.00872037  0.88774689  0.04337225    -0.82800
C498        C  0.03509828  0.88568029  0.03096569     1.04900
O499        O  0.05576657  0.89450565  0.05389374    -0.75600
O500        O  0.08490328  0.93245481  0.10360632    -0.75700
C501        C  0.08227689  0.95613085  0.08264599     1.04900
O502        O  0.05364846  0.95703337  0.17452978    -0.83100
O503        O  0.49170427  0.96292883  0.16473533    -0.80100
C504        C  0.46684581  0.96020892  0.14688606     1.00400
O505        O  0.46444689  0.94599064  0.11284512    -0.80200
O506        O  0.48086398  0.88801818  0.12471258    -0.82800
C507        C  0.49796424  0.86730187  0.13533962     1.04900
O508        O  0.02545843  0.86828058  0.12705231    -0.75600
O509        O  0.05380507  0.90864725  0.17704321    -0.75700
C510        C  0.05823259  0.93332187  0.19409602     1.04800
Cr511      Cr  0.02684131  0.96577637  0.12666701     1.93700
Cr512      Cr  0.49074800  0.91813960  0.08168331     1.93200
Cr513      Cr  0.05259790  0.90287773  0.11514893     1.39100
O514        O  0.02322774  0.92858510  0.10879957    -1.20800
O515        O  0.03682847  0.95258091  0.42223027    -0.83100
O516        O  0.02662139  0.01116888  0.42402150    -0.80100
C517        C  0.03485642  0.51214705  0.46148057     1.00400
O518        O  0.06190593  0.51342023  0.47044154    -0.80200
O519        O  0.12176263  0.50314729  0.46486742    -0.82800
C520        C  0.12381549  0.97681859  0.47750355     1.04900
O521        O  0.11488582  0.95596868  0.45488910    -0.75600
O522        O  0.07639048  0.92670937  0.40627085    -0.75700
C523        C  0.05261139  0.93003217  0.42707776     1.04900
O524        O  0.05255171  0.95641196  0.33498840    -0.83100
O525        O  0.04807795  0.51847900  0.34197294    -0.80100
C526        C  0.05078595  0.54375800  0.35864432     1.00400
O527        O  0.06446760  0.54694400  0.39302246    -0.80200
O528        O  0.12241483  0.52990088  0.38282620    -0.82800
C529        C  0.14301079  0.51244901  0.37269010     1.04900
O530        O  0.14156374  0.98499485  0.38111645    -0.75600
O531        O  0.10086759  0.95642346  0.33182236    -0.75700
C532        C  0.07618905  0.95167816  0.31514940     1.04800
Cr533      Cr  0.04413338  0.98461316  0.38159902     1.93700
Cr534      Cr  0.09187159  0.52095137  0.42569160     1.93200
Cr535      Cr  0.10657729  0.95838545  0.39367708     1.39100
O536        O  0.08126133  0.98811411  0.39941124    -1.20800
O537        O  0.17669673  0.92536938  0.90505241    -0.83100
O538        O  0.13902994  0.95511620  0.95496621    -0.80100
C539        C  0.13018942  0.97599477  0.97773236     1.00400
O540        O  0.13223876  0.50226659  0.96499991    -0.80200
O541        O  0.19234891  0.51158845  0.97102974    -0.82800
C542        C  0.21947616  0.51012870  0.96199346     1.04900
O543        O  0.22807454  0.00844099  0.92463076    -0.75600
O544        O  0.21671305  0.95019382  0.92105835    -0.75700
C545        C  0.20037541  0.92799830  0.92580498     1.04900
O546        O  0.15300334  0.95600372  0.83169308    -0.83100
O547        O  0.11283202  0.98501611  0.88180789    -0.80100
C548        C  0.11200478  0.51244517  0.87317927     1.00400
O549        O  0.13280367  0.52952680  0.88342850    -0.80200
O550        O  0.19078525  0.54574174  0.89496367    -0.82800
C551        C  0.20502336  0.54303685  0.86086914     1.04900
O552        O  0.20763198  0.51803652  0.84314808    -0.75600
O553        O  0.20138945  0.95602769  0.83372739    -0.75700
C554        C  0.17763723  0.95130559  0.81446487     1.04800
Cr555      Cr  0.14729438  0.95775835  0.89360172     1.93700
Cr556      Cr  0.16276781  0.51980457  0.92640456     1.93200
Cr557      Cr  0.21027393  0.98312042  0.88140694     1.39100
O558        O  0.17310783  0.98705968  0.89947612    -1.20800
O559        O  0.16916551  0.93208056  0.60207707    -0.83100
O560        O  0.19907786  0.89436339  0.55255543    -0.80100
C561        C  0.22000228  0.88571924  0.52964034     1.00400
O562        O  0.24625348  0.88790572  0.54218930    -0.80200
O563        O  0.25538197  0.94803352  0.53622565    -0.82800
C564        C  0.25400520  0.97509541  0.54543228     1.04900
O565        O  0.25228617  0.98352334  0.58278637    -0.75600
O566        O  0.19401489  0.97226809  0.58636555    -0.75700
C567        C  0.17181435  0.95598175  0.58154974     1.04900
O568        O  0.19973242  0.90829844  0.67582381    -0.83100
O569        O  0.22899399  0.86827032  0.62582282    -0.80100
C570        C  0.25645368  0.86753478  0.63410202     1.00400
O571        O  0.27343525  0.88839314  0.62360661    -0.80200
O572        O  0.28951114  0.94637066  0.61208927    -0.82800
C573        C  0.28672700  0.96042616  0.64626445     1.04900
O574        O  0.26169088  0.96284414  0.66409482    -0.75600
O575        O  0.19966536  0.95668206  0.67359030    -0.75700
C576        C  0.19514575  0.93291144  0.69306405     1.04800
Cr577      Cr  0.20159702  0.90265840  0.61386743     1.93700
Cr578      Cr  0.26364551  0.91838031  0.58072893     1.93200
Cr579      Cr  0.22685634  0.96564033  0.62592557     1.39100
O580        O  0.23084416  0.92854269  0.60780374    -1.20800
O581        O  0.28770204  0.56589521  0.08694675    -0.83100
O582        O  0.27633335  0.50765146  0.08335165    -0.80100
C583        C  0.28491262  0.50598702  0.04597796     1.00400
O584        O  0.31203560  0.00452933  0.03691424    -0.80200
O585        O  0.37215270  0.51382698  0.04289775    -0.82800
C586        C  0.37421144  0.54010264  0.03018919     1.04900
O587        O  0.36538694  0.56097522  0.05297802    -0.75600
O588        O  0.32773255  0.59071004  0.10291658    -0.75700
C589        C  0.30404610  0.58808408  0.08218071     1.04900
O590        O  0.30305685  0.56003945  0.17426089    -0.83100
O591        O  0.29681526  0.99802956  0.16480884    -0.80100
C592        C  0.29941707  0.97303527  0.14706769     1.00400
O593        O  0.31363121  0.97034324  0.11295144    -0.80200
O594        O  0.37161792  0.98653933  0.12444405    -0.82800
C595        C  0.39241772  0.00361425  0.13471262     1.04900
O596        O  0.39159287  0.53104860  0.12611509    -0.75600
O597        O  0.35144329  0.56006863  0.17625717    -0.75700
C598        C  0.32681585  0.56477039  0.19350178     1.04800
Cr599      Cr  0.29415526  0.53295803  0.12657489     1.93700
Cr600      Cr  0.34163624  0.99628626  0.08150471     1.93200
Cr601      Cr  0.35713443  0.55831787  0.11434444     1.39100
O602        O  0.33131426  0.52902199  0.10847094    -1.20800
O603        O  0.31043782  0.54389854  0.42162354    -0.83100
O604        O  0.25216470  0.53262908  0.42515673    -0.80100
C605        C  0.25040465  0.54107183  0.46250060     1.00400
O606        O  0.24902107  0.56813677  0.47168577    -0.80200
O607        O  0.25815693  0.62825946  0.46569304    -0.82800
C608        C  0.28440072  0.63043891  0.47827627     1.04900
O609        O  0.30533838  0.62179773  0.45538246    -0.75600
O610        O  0.33528613  0.58408318  0.40589569    -0.75700
C611        C  0.33263968  0.56018487  0.42643063     1.04900
O612        O  0.30481782  0.55945629  0.33438275    -0.83100
O613        O  0.24279160  0.55327562  0.34382589    -0.80100
C614        C  0.21774608  0.55569589  0.36162806     1.00400
O615        O  0.21494070  0.56976986  0.39578395    -0.80200
O616        O  0.23101668  0.62774573  0.38424407    -0.82800
C617        C  0.24799842  0.64860874  0.37377072     1.04900
O618        O  0.27545332  0.64787860  0.38208147    -0.75600
O619        O  0.30473763  0.60783956  0.33211446    -0.75700
C620        C  0.30933233  0.58322103  0.31489194     1.04800
Cr621      Cr  0.27760986  0.55050482  0.38203022     1.93700
Cr622      Cr  0.24078582  0.59777392  0.42715215     1.93200
Cr623      Cr  0.30284972  0.61349481  0.39406937     1.39100
O624        O  0.27360417  0.58760693  0.40012166    -1.20800
O625        O  0.33497058  0.68269888  0.90525106    -0.83100
O626        O  0.30539147  0.64455820  0.95457494    -0.80100
C627        C  0.28450269  0.63577017  0.97743466     1.00400
O628        O  0.25823773  0.63787247  0.96496897    -0.80200
O629        O  0.24860154  0.69795559  0.97120546    -0.82800
C630        C  0.24985167  0.72506694  0.96217032     1.04900
O631        O  0.25130809  0.73349146  0.92478808    -0.75600
O632        O  0.30974732  0.72255963  0.92161629    -0.75700
C633        C  0.33210004  0.70642273  0.92612098     1.04900
O634        O  0.30473245  0.65892099  0.83145133    -0.83100
O635        O  0.27587624  0.61841636  0.88111866    -0.80100
C636        C  0.24843596  0.61738232  0.87285399     1.00400
O637        O  0.23120693  0.63803749  0.88351981    -0.80200
O638        O  0.21470990  0.69592041  0.89496785    -0.82800
C639        C  0.21750631  0.70992705  0.86077359     1.04900
O640        O  0.24258661  0.71272461  0.84323021    -0.75600
O641        O  0.30467664  0.70728082  0.83436005    -0.75700
C642        C  0.30941628  0.68365060  0.81463773     1.04800
Cr643      Cr  0.30286754  0.65302786  0.89333269     1.93700
Cr644      Cr  0.24066017  0.66819023  0.92649666     1.93200
Cr645      Cr  0.27713948  0.71584563  0.88176502     1.39100
O646        O  0.27340664  0.67865492  0.89957076    -1.20800
O647        O  0.32697244  0.67534622  0.60498661    -0.83100
O648        O  0.36410191  0.70344775  0.55313487    -0.80100
C649        C  0.37265805  0.72357350  0.52894644     1.00400
O650        O  0.37132001  0.75023580  0.54027749    -0.80200
O651        O  0.31174214  0.76050856  0.53599559    -0.82800
C652        C  0.28478670  0.75980079  0.54568575     1.04900
O653        O  0.27650201  0.75870734  0.58321687    -0.75600
O654        O  0.28750798  0.70042259  0.58734217    -0.75700
C655        C  0.30362877  0.67799331  0.58340775     1.04900
O656        O  0.35199410  0.70743621  0.67632268    -0.83100
O657        O  0.39202427  0.73477447  0.62320700    -0.80100
C658        C  0.39346270  0.76247518  0.62976326     1.00400
O659        O  0.37239249  0.77940447  0.62051569    -0.80200
O660        O  0.31444390  0.79575905  0.61115257    -0.82800
C661        C  0.30054722  0.79347009  0.64566738     1.04900
O662        O  0.29794217  0.76868139  0.66395786    -0.75600
O663        O  0.30362165  0.70668591  0.67430191    -0.75700
C664        C  0.32744274  0.70248776  0.69366094     1.04800
Cr665      Cr  0.35699193  0.70760360  0.61426091     1.93700
Cr666      Cr  0.34175541  0.76910774  0.57930600     1.93200
Cr667      Cr  0.29446863  0.73354259  0.62644154     1.39100
O668        O  0.33146347  0.73699609  0.60770061    -1.20800
O669        O  0.21685824  0.81568459  0.42065010    -0.83100
O670        O  0.22789530  0.75739993  0.42473031    -0.80100
C671        C  0.21960096  0.75627541  0.46225506     1.00400
O672        O  0.19264366  0.75555227  0.47193034    -0.80200
O673        O  0.13306711  0.76580844  0.46763181    -0.82800
C674        C  0.13172429  0.79246550  0.47898806     1.04900
O675        O  0.14026591  0.81260534  0.45481179    -0.75600
O676        O  0.17738850  0.84074893  0.40299143    -0.75700
C677        C  0.20073291  0.83811192  0.42457202     1.04900
O678        O  0.20077286  0.80944662  0.33368190    -0.83100
O679        O  0.20648143  0.74745333  0.34396905    -0.80100
C680        C  0.20388217  0.72265412  0.36223104     1.00400
O681        O  0.18997582  0.72034047  0.39673481    -0.80200
O682        O  0.13202263  0.73667221  0.38736195    -0.82800
C683        C  0.11094522  0.75359458  0.37812457     1.04900
O684        O  0.11236944  0.78129297  0.38470641    -0.75600
O685        O  0.15240204  0.80866309  0.33162161    -0.75700
C686        C  0.17695767  0.81362543  0.31430169     1.04800
Cr687      Cr  0.20992634  0.78257542  0.38152140     1.93700
Cr688      Cr  0.16264514  0.74696410  0.42859594     1.93200
Cr689      Cr  0.14738798  0.80847641  0.39368375     1.39100
O690        O  0.17292910  0.77909430  0.40023758    -1.20800
O691        O  0.19474721  0.79347467  0.08640824    -0.83100
O692        O  0.25318455  0.78256556  0.08318480    -0.80100
C693        C  0.25460399  0.79097849  0.04579454     1.00400
O694        O  0.25584619  0.81808770  0.03674162    -0.80200
O695        O  0.24621655  0.87817672  0.04295782    -0.82800
C696        C  0.21994719  0.88027977  0.03051402     1.04900
O697        O  0.19906932  0.87148515  0.05338707    -0.75600
O698        O  0.16951836  0.83334088  0.10273053    -0.75700
C699        C  0.17239728  0.80961151  0.08187761     1.04900
O700        O  0.19984953  0.80878122  0.17365173    -0.83100
O701        O  0.26194407  0.80335881  0.16472198    -0.80100
C702        C  0.28701384  0.80615633  0.14714550     1.00400
O703        O  0.28978480  0.82014991  0.11293695    -0.80200
O704        O  0.27327595  0.87803027  0.12438171    -0.82800
C705        C  0.25604241  0.89867622  0.13507276     1.04900
O706        O  0.22859904  0.89763603  0.12682991    -0.75600
O707        O  0.19974694  0.85714281  0.17651176    -0.75700
C708        C  0.19507325  0.83241749  0.19334220     1.04800
Cr709      Cr  0.22736965  0.80021386  0.12622604     1.93700
Cr710      Cr  0.26381037  0.84786647  0.08142596     1.93200
Cr711      Cr  0.20161138  0.86302151  0.11462993     1.39100
O712        O  0.23107950  0.83740122  0.10839152    -1.20800
O713        O  0.07901080  0.84052978  0.90513045    -0.83100
O714        O  0.11613918  0.81046539  0.95486866    -0.80100
C715        C  0.12478950  0.78951018  0.97748824     1.00400
O716        O  0.12261649  0.76326041  0.96470787    -0.80200
O717        O  0.06237474  0.75431446  0.97097965    -0.82800
C718        C  0.03530638  0.75595653  0.96202003     1.04900
O719        O  0.02693099  0.75781208  0.92469874    -0.75600
O720        O  0.03875830  0.81595665  0.92125480    -0.75700
C721        C  0.05522760  0.83802728  0.92602356     1.04900
O722        O  0.10297744  0.80970396  0.83167027    -0.83100
O723        O  0.14254384  0.78046814  0.88163662    -0.80100
C724        C  0.14316651  0.75308661  0.87272327     1.00400
O725        O  0.12221743  0.73611409  0.88300726    -0.80200
O726        O  0.06412015  0.72024859  0.89485385    -0.82800
C727        C  0.05011217  0.72305142  0.86080112     1.04900
O728        O  0.04774198  0.74808560  0.84314288    -0.75600
O729        O  0.05458336  0.81005158  0.83385927    -0.75700
C730        C  0.07848444  0.81451465  0.81449686     1.04800
Cr731      Cr  0.10824007  0.80793172  0.89355221     1.93700
Cr732      Cr  0.09214613  0.74596395  0.92621289     1.93200
Cr733      Cr  0.04516763  0.78301812  0.88148625     1.39100
O734        O  0.08218560  0.77880453  0.89943467    -1.20800
O735        O  0.08043204  0.84923081  0.57733307    -0.83100
O736        O  0.04041914  0.89277039  0.56490420    -0.80100
C737        C  0.02955077  0.88285843  0.53112685     1.00400
O738        O  0.01198136  0.86141118  0.53203285    -0.80200
O739        O  0.48944517  0.80816811  0.55520331    -0.82800
C740        C  0.00941334  0.78957715  0.54698788     1.04900
O741        O  0.03314899  0.78882717  0.56696210    -0.75600
O742        O  0.07915540  0.80801099  0.61283437    -0.75700
C743        C  0.08915484  0.82314097  0.58254571     1.04900
O744        O  0.07060207  0.85177223  0.66829772    -0.83100
O745        O  0.02488062  0.89149391  0.65327786    -0.80100
C746        C  0.49993583  0.89996086  0.64031505     1.00400
O747        O  0.48797756  0.88799347  0.60857158    -0.80200
O748        O  0.46927972  0.83230522  0.63283048    -0.82800
C749        C  0.47036466  0.80515959  0.64156551     1.04900
O750        O  0.49411452  0.79077807  0.63698636    -0.75600
O751        O  0.03946870  0.81602795  0.68337758    -0.75700
C752        C  0.05961486  0.83349126  0.69423853     1.04800
Cr753      Cr  0.05233914  0.86917516  0.61584722     1.93700
Cr754      Cr  0.49225672  0.84724884  0.58410539     1.93200
Cr755      Cr  0.03576681  0.80372919  0.62444090     1.39100
O756        O  0.02644963  0.84013324  0.60873581    -1.20800
O757        O  0.42528626  0.70801853  0.39516486    -0.83100
O758        O  0.47131499  0.72720500  0.44099995    -0.80100
C759        C  0.49506561  0.72646465  0.46093989     1.00400
O760        O  0.01503520  0.70788146  0.45269491    -0.80200
O761        O  0.49252470  0.65463762  0.47590105    -0.82800
C762        C  0.47495379  0.63319232  0.47683446     1.04900
O763        O  0.46406615  0.62327321  0.44307397    -0.75600
O764        O  0.42403340  0.66679951  0.43067146    -0.75700
C765        C  0.41529325  0.69288299  0.42545181     1.04900
O766        O  0.46494256  0.70000576  0.32459314    -0.83100
O767        O  0.01031309  0.72526579  0.37093425    -0.80100
C768        C  0.03406211  0.71088822  0.36632036     1.00400
O769        O  0.03515484  0.68374121  0.37504392    -0.80200
O770        O  0.01648580  0.62805144  0.39934166    -0.82800
C771        C  0.00451146  0.61607947  0.36761465     1.04900
O772        O  0.47955740  0.62454008  0.35468111    -0.75600
O773        O  0.43382490  0.66425280  0.33970217    -0.75700
C774        C  0.44479662  0.68253636  0.31375209     1.04800
Cr775      Cr  0.46867005  0.71230579  0.38352220     1.93700
Cr776      Cr  0.01221345  0.66879758  0.42380273     1.93200
Cr777      Cr  0.45211503  0.64685780  0.39213705     1.39100
O778        O  0.47800286  0.67590443  0.39921672    -1.20800
O779        O  0.46575208  0.70003008  0.08680279    -0.83100
O780        O  0.47764003  0.75816304  0.08336817    -0.80100
C781        C  0.46929390  0.76002337  0.04603441     1.00400
O782        O  0.44223293  0.76168197  0.03703334    -0.80200
O783        O  0.38197408  0.75278760  0.04321245    -0.82800
C784        C  0.37976534  0.72653462  0.03045646     1.04900
O785        O  0.38838768  0.70557804  0.05309480    -0.75600
O786        O  0.42546770  0.67549529  0.10288313    -0.75700
C787        C  0.44926178  0.67797722  0.08201082     1.04900
O788        O  0.44987663  0.70595815  0.17417509    -0.83100
O789        O  0.45678083  0.76792204  0.16488762    -0.80100
C790        C  0.45443558  0.79295573  0.14721828     1.00400
O791        O  0.44045428  0.79576099  0.11314371    -0.80200
O792        O  0.38233440  0.77995053  0.12490643    -0.82800
C793        C  0.36136838  0.76299616  0.13518360     1.04900
O794        O  0.36197404  0.73561234  0.12628472    -0.75600
O795        O  0.40148234  0.70635152  0.17630340    -0.75700
C796        C  0.42595944  0.70151648  0.19350595     1.04800
Cr797      Cr  0.45934792  0.73297890  0.12655757     1.93700
Cr798      Cr  0.41243169  0.77006477  0.08174949     1.93200
Cr799      Cr  0.39625968  0.70811860  0.11441673     1.39100
O800        O  0.42234464  0.73722177  0.10855625    -1.20800
C801        C  0.42743363  0.69109177  0.23602687    -0.11000
C802        C  0.43343618  0.68497836  0.27188295    -0.12600
C803        C  0.00016907  0.74836052  0.49160074    -0.11000
C804        C  0.00432296  0.76768254  0.51632037    -0.12600
C805        C  0.01298738  0.75678194  0.99309829    -0.11000
C806        C  0.49163538  0.75918854  0.01498854    -0.07800
C807        C  0.07096174  0.83104403  0.73611786    -0.11000
C808        C  0.07697443  0.82493469  0.77197345    -0.12600
C809        C  0.31236949  0.78924085  0.15972551    -0.11000
C810        C  0.33516497  0.77583771  0.15383334    -0.12600
C811        C  0.13818402  0.79575444  0.01774350    -0.11000
C812        C  0.15142480  0.80180239  0.04966373    -0.12600
C813        C  0.10785630  0.80984772  0.55102338    -0.11000
C814        C  0.11955531  0.80043693  0.51944274    -0.12600
C815        C  0.06110014  0.72686223  0.35895084    -0.11000
C816        C  0.08393321  0.74034522  0.36344550    -0.12600
C817        C  0.17865548  0.82408383  0.27179138    -0.11000
C818        C  0.18455082  0.83029286  0.23584415    -0.12600
C819        C  0.26265259  0.75912357  0.51505106    -0.11000
C820        C  0.24172741  0.75693540  0.49290123    -0.12600
C821        C  0.38484461  0.71558067  0.48851264    -0.11000
C822        C  0.39656743  0.70616371  0.45695385    -0.12600
C823        C  0.42048235  0.77571722  0.64442864    -0.11000
C824        C  0.44332032  0.78919220  0.64892141    -0.12600
C825        C  0.25089008  0.74734823  0.99313819    -0.11000
C826        C  0.25353634  0.76868849  0.01484094    -0.12600
C827        C  0.31990125  0.68578994  0.77211902    -0.11000
C828        C  0.32576181  0.69201657  0.73616672    -0.12600
C829        C  0.35309171  0.71423147  0.95831207    -0.11000
C830        C  0.36635419  0.72028689  0.99021226    -0.12600
C831        C  0.19216595  0.72685665  0.84817457    -0.11000
C832        C  0.16937299  0.74026431  0.85405915    -0.12600
C833        C  0.29061901  0.64374913  0.51871403    -0.11000
C834        C  0.29639139  0.65689473  0.55091515    -0.12600
C835        C  0.22109420  0.69730340  0.35000133    -0.11000
C836        C  0.23499213  0.67479453  0.35558567    -0.12600
C837        C  0.26865116  0.92500207  0.15353548    -0.11000
C838        C  0.28214449  0.94773741  0.15939340    -0.12600
C839        C  0.32503548  0.57533464  0.23599795    -0.11000
C840        C  0.31941499  0.58137474  0.27211567    -0.12600
C841        C  0.29658002  0.60909760  0.04976115    -0.11000
C842        C  0.29078110  0.62235186  0.01770675    -0.12600
C843        C  0.21376027  0.87239269  0.48922099    -0.11000
C844        C  0.20797354  0.85922761  0.45704115    -0.12600
C845        C  0.26946161  0.84134881  0.65228471    -0.11000
C846        C  0.28335088  0.81883580  0.65787928    -0.12600
C847        C  0.25332516  0.99736325  0.51467264    -0.11000
C848        C  0.25104916  0.51881450  0.49327674    -0.12600
C849        C  0.20784356  0.90697568  0.95821300    -0.11000
C850        C  0.21365148  0.89370920  0.99025410    -0.12600
C851        C  0.26277496  0.50685547  0.01495691    -0.11000
C852        C  0.24159938  0.50928106  0.99303579    -0.12600
C853        C  0.18506204  0.93474185  0.73584017    -0.11000
C854        C  0.17943282  0.94076049  0.77196162    -0.12600
C855        C  0.22231523  0.56832514  0.84855195    -0.11000
C856        C  0.23582172  0.59105437  0.85440225    -0.12600
C857        C  0.04416066  0.90931683  0.45944827    -0.11000
C858        C  0.03710091  0.89638194  0.49131704    -0.12600
C859        C  0.03375115  0.56871859  0.34467783    -0.11000
C860        C  0.01911792  0.59091798  0.34886226    -0.12600
C861        C  0.13739091  0.97029352  0.51764395    -0.11000
C862        C  0.15073688  0.96393068  0.54941458    -0.12600
C863        C  0.19252009  0.53839014  0.34925625    -0.11000
C864        C  0.16970674  0.52487351  0.35472839    -0.12600
C865        C  0.04174852  0.87226534  0.99069246    -0.11000
C866        C  0.04774357  0.85903242  0.95858842    -0.12600
C867        C  0.47169247  0.81820073  0.15961045    -0.11000
C868        C  0.48519349  0.84096459  0.15376121    -0.12600
C869        C  0.44139365  0.97736760  0.15898590    -0.11000
C870        C  0.41866371  0.99084698  0.15307398    -0.12600
C871        C  0.06835029  0.93524134  0.23669520    -0.11000
C872        C  0.07418252  0.94115733  0.27269470    -0.12600
C873        C  0.11673855  0.96966553  0.01813413    -0.11000
C874        C  0.10342720  0.96371883  0.05023780    -0.12600
C875        C  0.48532432  0.92512521  0.65905274    -0.11000
C876        C  0.47069746  0.94732973  0.66322990    -0.12600
C877        C  0.46742118  0.61968200  0.51665768    -0.11000
C878        C  0.46036768  0.60675876  0.54853779    -0.12600
C879        C  0.49185218  0.50615031  0.51526137    -0.11000
C880        C  0.01266711  0.50998148  0.49270396    -0.12600
C881        C  0.36709167  0.54586036  0.49030582    -0.11000
C882        C  0.35372799  0.55223381  0.45855356    -0.12600
C883        C  0.33478155  0.99122522  0.65316318    -0.11000
C884        C  0.31196419  0.97771513  0.65863346    -0.12600
C885        C  0.40097301  0.55238592  0.95768923    -0.11000
C886        C  0.38765741  0.54644149  0.98978888    -0.12600
C887        C  0.00106000  0.99729911  0.01485379    -0.11000
C888        C  0.00332389  0.51867386  0.99306349    -0.12600
C889        C  0.43611521  0.58087005  0.77125949    -0.11000
C890        C  0.43029623  0.57494120  0.73526025    -0.12600
C891        C  0.45673250  0.65697421  0.04943705    -0.11000
C892        C  0.46271730  0.64374693  0.01732418    -0.12600
C893        C  0.01933256  0.67505266  0.85428417    -0.11000
C894        C  0.03284776  0.69780688  0.84843232    -0.12600
C895        C  0.06301599  0.53866853  0.84892407    -0.11000
C896        C  0.08575430  0.52519988  0.85481672    -0.12600
O897        O  0.91953287  0.08364256  0.90433999    -0.83100
O898        O  0.94869062  0.12155443  0.95409060    -0.80100
C899        C  0.96936264  0.13034216  0.97704225     1.00400
O900        O  0.99574254  0.12824676  0.96465479    -0.80200
O901        O  0.50531029  0.06809657  0.97101325    -0.82800
C902        C  0.00409888  0.04096260  0.96202749     1.04900
O903        O  0.00266868  0.03247034  0.92467498    -0.75600
O904        O  0.94442223  0.04369809  0.92077462    -0.75700
C905        C  0.92213488  0.05996019  0.92529217     1.04900
O906        O  0.95066986  0.10744379  0.83092994    -0.83100
O907        O  0.97903812  0.14776961  0.88096237    -0.80100
C908        C  0.50653512  0.14872570  0.87269442     1.00400
O909        O  0.52361453  0.12799333  0.88332469    -0.80200
O910        O  0.53997266  0.07000445  0.89512809    -0.82800
C911        C  0.53756546  0.05581356  0.86106507     1.04900
O912        O  0.51270447  0.05311344  0.84321645    -0.75600
O913        O  0.95076486  0.05905840  0.83343019    -0.75700
C914        C  0.94621751  0.08277706  0.81386678     1.04800
Cr915      Cr  0.95186592  0.11319494  0.89283090     1.93700
Cr916      Cr  0.51369390  0.09785944  0.92631782     1.93200
Cr917      Cr  0.97756475  0.05027708  0.88128232     1.39100
O918        O  0.98121002  0.08745774  0.89917940    -1.20800
O919        O  0.92812604  0.08937900  0.60170330    -0.83100
O920        O  0.88962171  0.06015261  0.55305980    -0.80100
C921        C  0.88068565  0.03931457  0.53042891     1.00400
O922        O  0.88274480  0.01297964  0.54303563    -0.80200
O923        O  0.94260591  0.50270345  0.53748767    -0.82800
C924        C  0.96965302  0.00396483  0.54646819     1.04900
O925        O  0.97787519  0.00491243  0.58393480    -0.75600
O926        O  0.96769022  0.06350123  0.58577052    -0.75700
C927        C  0.95191098  0.08605147  0.58091243     1.04900
O928        O  0.90362534  0.05966311  0.67612813    -0.83100
O929        O  0.86293495  0.03110678  0.62681119    -0.80100
C930        C  0.86147913  0.50364849  0.63520786     1.00400
O931        O  0.88206807  0.48619379  0.62505136    -0.80200
O932        O  0.94001263  0.46913906  0.61487336    -0.82800
C933        C  0.95367972  0.47230402  0.64926760     1.04900
O934        O  0.95638899  0.49757469  0.66596483    -0.75600
O935        O  0.95194197  0.05964438  0.67299728    -0.75700
C936        C  0.92830035  0.06440069  0.69281434     1.04800
Cr937      Cr  0.89792718  0.05771203  0.61427189     1.93700
Cr938      Cr  0.91262485  0.49515505  0.58221170     1.93200
Cr939      Cr  0.96036026  0.03145640  0.62637031     1.39100
O940        O  0.92323597  0.02797733  0.60853003    -1.20800
O941        O  0.55997637  0.47237379  0.08716698    -0.83100
O942        O  0.50172205  0.48353962  0.08325573    -0.80100
C943        C  0.50029506  0.47502603  0.04591232     1.00400
O944        O  0.99909965  0.44788643  0.03695470    -0.80200
O945        O  0.50872039  0.38774687  0.04337220    -0.82800
C946        C  0.53509837  0.38568030  0.03096568     1.04900
O947        O  0.55576660  0.39450564  0.05389376    -0.75600
O948        O  0.58490338  0.43245483  0.10360630    -0.75700
C949        C  0.58227690  0.45613087  0.08264593     1.04900
O950        O  0.55364853  0.45703334  0.17452978    -0.83100
O951        O  0.99170431  0.46292879  0.16473523    -0.80100
C952        C  0.96684578  0.46020891  0.14688598     1.00400
O953        O  0.96444691  0.44599063  0.11284503    -0.80200
O954        O  0.98086394  0.38801815  0.12471231    -0.82800
C955        C  0.99796427  0.36730184  0.13533951     1.04900
O956        O  0.52545850  0.36828056  0.12705227    -0.75600
O957        O  0.55380517  0.40864722  0.17704316    -0.75700
C958        C  0.55823260  0.43332185  0.19409606     1.04800
Cr959      Cr  0.52684138  0.46577632  0.12666698     1.93700
Cr960      Cr  0.99074803  0.41813961  0.08168318     1.93200
Cr961      Cr  0.55259799  0.40287771  0.11514890     1.39100
O962        O  0.52322778  0.42858503  0.10879955    -1.20800
O963        O  0.53682846  0.45258094  0.42223024    -0.83100
O964        O  0.52662135  0.51116888  0.42402146    -0.80100
C965        C  0.53485659  0.01214708  0.46148060     1.00400
O966        O  0.56190609  0.01342044  0.47044150    -0.80200
O967        O  0.62176282  0.00314742  0.46486741    -0.82800
C968        C  0.62381538  0.47681862  0.47750344     1.04900
O969        O  0.61488581  0.45596870  0.45488908    -0.75600
O970        O  0.57639044  0.42670930  0.40627090    -0.75700
C971        C  0.55261134  0.43003212  0.42707778     1.04900
O972        O  0.55255171  0.45641200  0.33498834    -0.83100
O973        O  0.54807804  0.01847905  0.34197301    -0.80100
C974        C  0.55078608  0.04375801  0.35864431     1.00400
O975        O  0.56446778  0.04694411  0.39302237    -0.80200
O976        O  0.62241501  0.02990094  0.38282612    -0.82800
C977        C  0.64301093  0.01244905  0.37268998     1.04900
O978        O  0.64156374  0.48499490  0.38111651    -0.75600
O979        O  0.60086759  0.45642349  0.33182240    -0.75700
C980        C  0.57618900  0.45167809  0.31514941     1.04800
Cr981      Cr  0.54413336  0.48461319  0.38159900     1.93700
Cr982      Cr  0.59187177  0.02095151  0.42569154     1.93200
Cr983      Cr  0.60657722  0.45838549  0.39367710     1.39100
O984        O  0.58126125  0.48811415  0.39941127    -1.20800
O985        O  0.67669678  0.42536950  0.90505243    -0.83100
O986        O  0.63903002  0.45511626  0.95496623    -0.80100
C987        C  0.63018952  0.47599482  0.97773237     1.00400
O988        O  0.63223863  0.00226650  0.96499980    -0.80200
O989        O  0.69234876  0.01158844  0.97102986    -0.82800
C990        C  0.71947612  0.01012873  0.96199368     1.04900
O991        O  0.72807460  0.50844099  0.92463057    -0.75600
O992        O  0.71671318  0.45019386  0.92105815    -0.75700
C993        C  0.70037557  0.42799842  0.92580494     1.04900
O994        O  0.65300337  0.45600382  0.83169308    -0.83100
O995        O  0.61283211  0.48501620  0.88180795    -0.80100
C996        C  0.61200481  0.01244510  0.87317925     1.00400
O997        O  0.63280360  0.02952672  0.88342847    -0.80200
O998        O  0.69078514  0.04574172  0.89496382    -0.82800
C999        C  0.70502333  0.04303691  0.86086936     1.04900
O1000       O  0.70763201  0.01803652  0.84314826    -0.75600
O1001       O  0.70138946  0.45602768  0.83372726    -0.75700
C1002       C  0.67763716  0.45130562  0.81446479     1.04800
Cr1003     Cr  0.64729445  0.45775842  0.89360173     1.93700
Cr1004     Cr  0.66276773  0.01980450  0.92640455     1.93200
Cr1005     Cr  0.71027394  0.48312047  0.88140673     1.39100
O1006       O  0.67310788  0.48705973  0.89947606    -1.20800
O1007       O  0.66916554  0.43208057  0.60207706    -0.83100
O1008       O  0.69907794  0.39436347  0.55255550    -0.80100
C1009       C  0.72000228  0.38571934  0.52964032     1.00400
O1010       O  0.74625352  0.38790576  0.54218931    -0.80200
O1011       O  0.75538202  0.44803365  0.53622566    -0.82800
C1012       C  0.75400514  0.47509553  0.54543237     1.04900
O1013       O  0.75228612  0.48352342  0.58278647    -0.75600
O1014       O  0.69401490  0.47226811  0.58636542    -0.75700
C1015       C  0.67181431  0.45598170  0.58154991     1.04900
O1016       O  0.69973244  0.40829850  0.67582375    -0.83100
O1017       O  0.72899403  0.36827042  0.62582277    -0.80100
C1018       C  0.75645375  0.36753479  0.63410194     1.00400
O1019       O  0.77343529  0.38839319  0.62360643    -0.80200
O1020       O  0.78951116  0.44637066  0.61208938    -0.82800
C1021       C  0.78672686  0.46042624  0.64626449     1.04900
O1022       O  0.76169080  0.46284414  0.66409482    -0.75600
O1023       O  0.69966520  0.45668212  0.67359021    -0.75700
C1024       C  0.69514574  0.43291149  0.69306401     1.04800
Cr1025     Cr  0.70159705  0.40265845  0.61386746     1.93700
Cr1026     Cr  0.76364550  0.41838041  0.58072886     1.93200
Cr1027     Cr  0.72685626  0.46564036  0.62592555     1.39100
O1028       O  0.73084413  0.42854276  0.60780370    -1.20800
O1029       O  0.78770201  0.06589530  0.08694682    -0.83100
O1030       O  0.77633326  0.00765158  0.08335176    -0.80100
C1031       C  0.78491238  0.00598703  0.04597807     1.00400
O1032       O  0.81203557  0.50452934  0.03691432    -0.80200
O1033       O  0.87215256  0.01382699  0.04289763    -0.82800
C1034       C  0.87421136  0.04010263  0.03018921     1.04900
O1035       O  0.86538691  0.06097524  0.05297801    -0.75600
O1036       O  0.82773255  0.09071008  0.10291665    -0.75700
C1037       C  0.80404622  0.08808418  0.08218086     1.04900
O1038       O  0.80305687  0.06003955  0.17426090    -0.83100
O1039       O  0.79681521  0.49802956  0.16480887    -0.80100
C1040       C  0.79941699  0.47303524  0.14706768     1.00400
O1041       O  0.81363114  0.47034327  0.11295147    -0.80200
O1042       O  0.87161786  0.48653936  0.12444409    -0.82800
C1043       C  0.89241783  0.50361420  0.13471252     1.04900
O1044       O  0.89159290  0.03104860  0.12611503    -0.75600
O1045       O  0.85144332  0.06006857  0.17625721    -0.75700
C1046       C  0.82681587  0.06477044  0.19350196     1.04800
Cr1047     Cr  0.79415528  0.03295814  0.12657490     1.93700
Cr1048     Cr  0.84163619  0.49628628  0.08150477     1.93200
Cr1049     Cr  0.85713445  0.05831789  0.11434449     1.39100
O1050       O  0.83131427  0.02902203  0.10847097    -1.20800
O1051       O  0.81043790  0.04389861  0.42162355    -0.83100
O1052       O  0.75216477  0.03262908  0.42515671    -0.80100
C1053       C  0.75040480  0.04107184  0.46250054     1.00400
O1054       O  0.74902119  0.06813673  0.47168578    -0.80200
O1055       O  0.75815696  0.12825942  0.46569310    -0.82800
C1056       C  0.78440077  0.13043891  0.47827631     1.04900
O1057       O  0.80533841  0.12179779  0.45538250    -0.75600
O1058       O  0.83528619  0.08408328  0.40589575    -0.75700
C1059       C  0.83263973  0.06018498  0.42643063     1.04900
O1060       O  0.80481790  0.05945641  0.33438283    -0.83100
O1061       O  0.74279169  0.05327561  0.34382589    -0.80100
C1062       C  0.71774616  0.05569587  0.36162803     1.00400
O1063       O  0.71494077  0.06976984  0.39578394    -0.80200
O1064       O  0.73101674  0.12774573  0.38424422    -0.82800
C1065       C  0.74799844  0.14860879  0.37377070     1.04900
O1066       O  0.77545334  0.14787870  0.38208159    -0.75600
O1067       O  0.80473770  0.10783970  0.33211448    -0.75700
C1068       C  0.80933243  0.08322118  0.31489183     1.04800
Cr1069     Cr  0.77760993  0.05050486  0.38203023     1.93700
Cr1070     Cr  0.74078587  0.09777389  0.42715223     1.93200
Cr1071     Cr  0.80284974  0.11349494  0.39406943     1.39100
O1072       O  0.77360421  0.08760699  0.40012171    -1.20800
O1073       O  0.83497051  0.18269884  0.90525112    -0.83100
O1074       O  0.80539140  0.14455813  0.95457500    -0.80100
C1075       C  0.78450261  0.13577022  0.97743465     1.00400
O1076       O  0.75823766  0.13787250  0.96496900    -0.80200
O1077       O  0.74860147  0.19795560  0.97120546    -0.82800
C1078       C  0.74985165  0.22506701  0.96217031     1.04900
O1079       O  0.75130814  0.23349150  0.92478811    -0.75600
O1080       O  0.80974735  0.22255963  0.92161633    -0.75700
C1081       C  0.83210001  0.20642268  0.92612097     1.04900
O1082       O  0.80473233  0.15892096  0.83145130    -0.83100
O1083       O  0.77587614  0.11841636  0.88111872    -0.80100
C1084       C  0.74843581  0.11738224  0.87285411     1.00400
O1085       O  0.73120682  0.13803749  0.88351983    -0.80200
O1086       O  0.71470983  0.19592040  0.89496785    -0.82800
C1087       C  0.71750627  0.20992701  0.86077357     1.04900
O1088       O  0.74258658  0.21272467  0.84323027    -0.75600
O1089       O  0.80467667  0.20728079  0.83436001    -0.75700
C1090       C  0.80941627  0.18365058  0.81463765     1.04800
Cr1091     Cr  0.80286744  0.15302784  0.89333272     1.93700
Cr1092     Cr  0.74066007  0.16819024  0.92649667     1.93200
Cr1093     Cr  0.77713949  0.21584564  0.88176501     1.39100
O1094       O  0.77340655  0.17865493  0.89957080    -1.20800
O1095       O  0.82697248  0.17534620  0.60498664    -0.83100
O1096       O  0.86410201  0.20344769  0.55313492    -0.80100
C1097       C  0.87265800  0.22357355  0.52894656     1.00400
O1098       O  0.87131996  0.25023574  0.54027741    -0.80200
O1099       O  0.81174208  0.26050852  0.53599554    -0.82800
C1100       C  0.78478667  0.25980072  0.54568579     1.04900
O1101       O  0.77650196  0.25870732  0.58321688    -0.75600
O1102       O  0.78750801  0.20042257  0.58734227    -0.75700
C1103       C  0.80362876  0.17799330  0.58340781     1.04900
O1104       O  0.85199411  0.20743619  0.67632278    -0.83100
O1105       O  0.89202425  0.23477443  0.62320706    -0.80100
C1106       C  0.89346270  0.26247516  0.62976324     1.00400
O1107       O  0.87239245  0.27940443  0.62051561    -0.80200
O1108       O  0.81444389  0.29575905  0.61115248    -0.82800
C1109       C  0.80054724  0.29347015  0.64566725     1.04900
O1110       O  0.79794222  0.26868139  0.66395785    -0.75600
O1111       O  0.80362165  0.20668591  0.67430192    -0.75700
C1112       C  0.82744271  0.20248777  0.69366106     1.04800
Cr1113     Cr  0.85699194  0.20760360  0.61426095     1.93700
Cr1114     Cr  0.84175536  0.26910772  0.57930594     1.93200
Cr1115     Cr  0.79446864  0.23354259  0.62644160     1.39100
O1116       O  0.83146345  0.23699607  0.60770060    -1.20800
O1117       O  0.71685830  0.31568463  0.42065003    -0.83100
O1118       O  0.72789532  0.25739992  0.42473036    -0.80100
C1119       C  0.71960094  0.25627543  0.46225514     1.00400
O1120       O  0.69264370  0.25555228  0.47193034    -0.80200
O1121       O  0.63306712  0.26580846  0.46763190    -0.82800
C1122       C  0.63172427  0.29246554  0.47898813     1.04900
O1123       O  0.64026596  0.31260534  0.45481180    -0.75600
O1124       O  0.67738851  0.34074894  0.40299141    -0.75700
C1125       C  0.70073292  0.33811196  0.42457195     1.04900
O1126       O  0.70077291  0.30944658  0.33368186    -0.83100
O1127       O  0.70648151  0.24745336  0.34396907    -0.80100
C1128       C  0.70388216  0.22265404  0.36223109     1.00400
O1129       O  0.68997590  0.22034050  0.39673483    -0.80200
O1130       O  0.63202267  0.23667223  0.38736208    -0.82800
C1131       C  0.61094529  0.25359469  0.37812457     1.04900
O1132       O  0.61236948  0.28129301  0.38470646    -0.75600
O1133       O  0.65240204  0.30866310  0.33162159    -0.75700
C1134       C  0.67695771  0.31362548  0.31430164     1.04800
Cr1135     Cr  0.70992638  0.28257546  0.38152139     1.93700
Cr1136     Cr  0.66264518  0.24696416  0.42859592     1.93200
Cr1137     Cr  0.64738795  0.30847643  0.39368373     1.39100
O1138       O  0.67292909  0.27909432  0.40023738    -1.20800
O1139       O  0.69474712  0.29347470  0.08640813    -0.83100
O1140       O  0.75318442  0.28256558  0.08318484    -0.80100
C1141       C  0.75460406  0.29097850  0.04579457     1.00400
O1142       O  0.75584611  0.31808773  0.03674168    -0.80200
O1143       O  0.74621649  0.37817673  0.04295788    -0.82800
C1144       C  0.71994719  0.38027982  0.03051406     1.04900
O1145       O  0.69906925  0.37148517  0.05338710    -0.75600
O1146       O  0.66951827  0.33334088  0.10273054    -0.75700
C1147       C  0.67239718  0.30961148  0.08187766     1.04900
O1148       O  0.69984942  0.30878124  0.17365170    -0.83100
O1149       O  0.76194400  0.30335881  0.16472205    -0.80100
C1150       C  0.78701372  0.30615625  0.14714554     1.00400
O1151       O  0.78978466  0.32014989  0.11293699    -0.80200
O1152       O  0.77327584  0.37803025  0.12438170    -0.82800
C1153       C  0.75604228  0.39867623  0.13507278     1.04900
O1154       O  0.72859894  0.39763607  0.12682987    -0.75600
O1155       O  0.69974689  0.35714283  0.17651180    -0.75700
C1156       C  0.69507317  0.33241756  0.19334227     1.04800
Cr1157     Cr  0.72736952  0.30021391  0.12622602     1.93700
Cr1158     Cr  0.76381025  0.34786646  0.08142602     1.93200
Cr1159     Cr  0.70161130  0.36302154  0.11462993     1.39100
O1160       O  0.73107936  0.33740125  0.10839148    -1.20800
O1161       O  0.57901076  0.34052988  0.90513040    -0.83100
O1162       O  0.61613915  0.31046552  0.95486867    -0.80100
C1163       C  0.62478948  0.28951030  0.97748817     1.00400
O1164       O  0.62261646  0.26326052  0.96470779    -0.80200
O1165       O  0.56237475  0.25431458  0.97097968    -0.82800
C1166       C  0.53530647  0.25595654  0.96201996     1.04900
O1167       O  0.52693104  0.25781211  0.92469875    -0.75600
O1168       O  0.53875830  0.31595664  0.92125475    -0.75700
C1169       C  0.55522755  0.33802731  0.92602353     1.04900
O1170       O  0.60297743  0.30970410  0.83167020    -0.83100
O1171       O  0.64254378  0.28046825  0.88163647    -0.80100
C1172       C  0.64316649  0.25308669  0.87272322     1.00400
O1173       O  0.62221742  0.23611417  0.88300728    -0.80200
O1174       O  0.56412017  0.22024867  0.89485388    -0.82800
C1175       C  0.55011226  0.22305141  0.86080113     1.04900
O1176       O  0.54774199  0.24808562  0.84314286    -0.75600
O1177       O  0.55458332  0.31005155  0.83385924    -0.75700
C1178       C  0.57848432  0.31451462  0.81449684     1.04800
Cr1179     Cr  0.60824004  0.30793185  0.89355216     1.93700
Cr1180     Cr  0.59214612  0.24596405  0.92621288     1.93200
Cr1181     Cr  0.54516762  0.28301815  0.88148623     1.39100
O1182       O  0.58218559  0.27880461  0.89943459    -1.20800
O1183       O  0.58043207  0.34923090  0.57733298    -0.83100
O1184       O  0.54041913  0.39277048  0.56490412    -0.80100
C1185       C  0.52955073  0.38285860  0.53112685     1.00400
O1186       O  0.51198123  0.36141129  0.53203290    -0.80200
O1187       O  0.98944524  0.30816805  0.55520333    -0.82800
C1188       C  0.50941312  0.28957713  0.54698782     1.04900
O1189       O  0.53314890  0.28882728  0.56696204    -0.75600
O1190       O  0.57915531  0.30801108  0.61283430    -0.75700
C1191       C  0.58915484  0.32314100  0.58254562     1.04900
O1192       O  0.57060207  0.35177221  0.66829759    -0.83100
O1193       O  0.52488057  0.39149397  0.65327788    -0.80100
C1194       C  0.99993581  0.39996081  0.64031495     1.00400
O1195       O  0.98797756  0.38799347  0.60857136    -0.80200
O1196       O  0.96927974  0.33230523  0.63283048    -0.82800
C1197       C  0.97036463  0.30515961  0.64156546     1.04900
O1198       O  0.99411456  0.29077807  0.63698637    -0.75600
O1199       O  0.53946860  0.31602809  0.68337757    -0.75700
C1200       C  0.55961481  0.33349133  0.69423850     1.04800
Cr1201     Cr  0.55233912  0.36917522  0.61584717     1.93700
Cr1202     Cr  0.99225673  0.34724880  0.58410532     1.93200
Cr1203     Cr  0.53576674  0.30372928  0.62444082     1.39100
O1204       O  0.52644960  0.34013331  0.60873574    -1.20800
O1205       O  0.92528625  0.20801847  0.39516494    -0.83100
O1206       O  0.97131500  0.22720490  0.44100000    -0.80100
C1207       C  0.99506573  0.22646450  0.46093981     1.00400
O1208       O  0.51503517  0.20788150  0.45269499    -0.80200
O1209       O  0.99252480  0.15463759  0.47590098    -0.82800
C1210       C  0.97495388  0.13319223  0.47683440     1.04900
O1211       O  0.96406620  0.12327319  0.44307396    -0.75600
O1212       O  0.92403343  0.16679948  0.43067157    -0.75700
C1213       C  0.91529330  0.19288286  0.42545172     1.04900
O1214       O  0.96494251  0.20000579  0.32459314    -0.83100
O1215       O  0.51031307  0.22526576  0.37093434    -0.80100
C1216       C  0.53406207  0.21088832  0.36632050     1.00400
O1217       O  0.53515484  0.18374122  0.37504392    -0.80200
O1218       O  0.51648585  0.12805147  0.39934169    -0.82800
C1219       C  0.50451149  0.11607953  0.36761469     1.04900
O1220       O  0.97955745  0.12454004  0.35468114    -0.75600
O1221       O  0.93382495  0.16425276  0.33970214    -0.75700
C1222       C  0.94479665  0.18253632  0.31375214     1.04800
Cr1223     Cr  0.96867005  0.21230581  0.38352227     1.93700
Cr1224     Cr  0.51221347  0.16879761  0.42380279     1.93200
Cr1225     Cr  0.95211510  0.14685779  0.39213710     1.39100
O1226       O  0.97800287  0.17590448  0.39921686    -1.20800
O1227       O  0.96575208  0.20003013  0.08680284    -0.83100
O1228       O  0.97763998  0.25816313  0.08336812    -0.80100
C1229       C  0.96929385  0.26002342  0.04603437     1.00400
O1230       O  0.94223286  0.26168198  0.03703336    -0.80200
O1231       O  0.88197400  0.25278757  0.04321250    -0.82800
C1232       C  0.87976541  0.22653459  0.03045647     1.04900
O1233       O  0.88838770  0.20557802  0.05309479    -0.75600
O1234       O  0.92546775  0.17549529  0.10288316    -0.75700
C1235       C  0.94926175  0.17797725  0.08201087     1.04900
O1236       O  0.94987671  0.20595832  0.17417515    -0.83100
O1237       O  0.95678087  0.26792213  0.16488757    -0.80100
C1238       C  0.95443553  0.29295583  0.14721831     1.00400
O1239       O  0.94045424  0.29576108  0.11314369    -0.80200
O1240       O  0.88233429  0.27995054  0.12490644    -0.82800
C1241       C  0.86136831  0.26299613  0.13518359     1.04900
O1242       O  0.86197398  0.23561231  0.12628478    -0.75600
O1243       O  0.90148241  0.20635151  0.17630334    -0.75700
C1244       C  0.92595962  0.20151652  0.19350585     1.04800
Cr1245     Cr  0.95934793  0.23297898  0.12655754     1.93700
Cr1246     Cr  0.91243162  0.27006481  0.08174954     1.93200
Cr1247     Cr  0.89625969  0.20811860  0.11441675     1.39100
O1248       O  0.92234460  0.23722183  0.10855630    -1.20800
C1249       C  0.92743372  0.19109177  0.23602685    -0.11000
C1250       C  0.93343619  0.18497832  0.27188285    -0.12600
C1251       C  0.50016898  0.24836049  0.49160067    -0.11000
C1252       C  0.50432290  0.26768269  0.51632034    -0.12600
C1253       C  0.51298730  0.25678193  0.99309828    -0.11000
C1254       C  0.99163531  0.25918853  0.01498847    -0.07800
C1255       C  0.57096182  0.33104401  0.73611780    -0.11000
C1256       C  0.57697434  0.32493465  0.77197342    -0.12600
C1257       C  0.81236948  0.28924087  0.15972546    -0.11000
C1258       C  0.83516492  0.27583770  0.15383330    -0.12600
C1259       C  0.63818408  0.29575456  0.01774339    -0.11000
C1260       C  0.65142467  0.30180243  0.04966367    -0.12600
C1261       C  0.60785621  0.30984772  0.55102336    -0.11000
C1262       C  0.61955538  0.30043701  0.51944268    -0.12600
C1263       C  0.56110015  0.22686239  0.35895087    -0.11000
C1264       C  0.58393322  0.24034534  0.36344567    -0.12600
C1265       C  0.67865558  0.32408384  0.27179147    -0.11000
C1266       C  0.68455080  0.33029292  0.23584414    -0.12600
C1267       C  0.76265257  0.25912354  0.51505110    -0.11000
C1268       C  0.74172741  0.25693548  0.49290132    -0.12600
C1269       C  0.88484471  0.21558054  0.48851254    -0.11000
C1270       C  0.89656734  0.20616369  0.45695406    -0.12600
C1271       C  0.92048230  0.27571721  0.64442865    -0.11000
C1272       C  0.94332032  0.28919219  0.64892142    -0.12600
C1273       C  0.75089013  0.24734825  0.99313819    -0.11000
C1274       C  0.75353638  0.26868852  0.01484101    -0.12600
C1275       C  0.81990121  0.18578988  0.77211901    -0.11000
C1276       C  0.82576169  0.19201660  0.73616666    -0.12600
C1277       C  0.85309175  0.21423141  0.95831214    -0.11000
C1278       C  0.86635410  0.22028683  0.99021229    -0.12600
C1279       C  0.69216599  0.22685673  0.84817451    -0.11000
C1280       C  0.66937305  0.24026440  0.85405912    -0.12600
C1281       C  0.79061904  0.14374906  0.51871403    -0.11000
C1282       C  0.79639139  0.15689468  0.55091523    -0.12600
C1283       C  0.72109417  0.19730345  0.35000139    -0.11000
C1284       C  0.73499216  0.17479444  0.35558586    -0.12600
C1285       C  0.76865109  0.42500203  0.15353547    -0.11000
C1286       C  0.78214445  0.44773731  0.15939343    -0.12600
C1287       C  0.82503559  0.07533465  0.23599781    -0.11000
C1288       C  0.81941508  0.08137477  0.27211582    -0.12600
C1289       C  0.79658018  0.10909771  0.04976112    -0.11000
C1290       C  0.79078109  0.12235188  0.01770691    -0.12600
C1291       C  0.71376027  0.37239281  0.48922091    -0.11000
C1292       C  0.70797359  0.35922761  0.45704109    -0.12600
C1293       C  0.76946158  0.34134888  0.65228465    -0.11000
C1294       C  0.78335094  0.31883574  0.65787918    -0.12600
C1295       C  0.75332513  0.49736329  0.51467268    -0.11000
C1296       C  0.75104930  0.01881444  0.49327674    -0.12600
C1297       C  0.70784355  0.40697577  0.95821303    -0.11000
C1298       C  0.71365141  0.39370925  0.99025415    -0.12600
C1299       C  0.76277488  0.00685542  0.01495715    -0.11000
C1300       C  0.74159919  0.00928106  0.99303585    -0.12600
C1301       C  0.68506201  0.43474179  0.73584011    -0.11000
C1302       C  0.67943267  0.44076050  0.77196154    -0.12600
C1303       C  0.72231510  0.06832510  0.84855209    -0.11000
C1304       C  0.73582166  0.09105437  0.85440232    -0.12600
C1305       C  0.54416059  0.40931698  0.45944829    -0.11000
C1306       C  0.53710078  0.39638200  0.49131711    -0.12600
C1307       C  0.53375120  0.06871866  0.34467780    -0.11000
C1308       C  0.51911798  0.09091793  0.34886227    -0.12600
C1309       C  0.63739085  0.47029350  0.51764405    -0.11000
C1310       C  0.65073672  0.46393063  0.54941453    -0.12600
C1311       C  0.69252021  0.03839016  0.34925612    -0.11000
C1312       C  0.66970687  0.02487348  0.35472833    -0.12600
C1313       C  0.54174858  0.37226535  0.99069247    -0.11000
C1314       C  0.54774347  0.35903239  0.95858839    -0.12600
C1315       C  0.97169235  0.31820086  0.15961040    -0.11000
C1316       C  0.98519354  0.34096466  0.15376108    -0.12600
C1317       C  0.94139375  0.47736755  0.15898595    -0.11000
C1318       C  0.91866365  0.49084693  0.15307402    -0.12600
C1319       C  0.56835025  0.43524132  0.23669517    -0.11000
C1320       C  0.57418258  0.44115737  0.27269470    -0.12600
C1321       C  0.61673860  0.46966555  0.01813415    -0.11000
C1322       C  0.60342721  0.46371885  0.05023772    -0.12600
C1323       C  0.98532427  0.42512525  0.65905258    -0.11000
C1324       C  0.97069747  0.44732976  0.66322971    -0.12600
C1325       C  0.96742125  0.11968195  0.51665764    -0.11000
C1326       C  0.96036775  0.10675872  0.54853779    -0.12600
C1327       C  0.99185230  0.00615030  0.51526139    -0.11000
C1328       C  0.51266728  0.00998155  0.49270405    -0.12600
C1329       C  0.86709171  0.04586030  0.49030579    -0.11000
C1330       C  0.85372802  0.05223385  0.45855367    -0.12600
C1331       C  0.83478148  0.49122522  0.65316319    -0.11000
C1332       C  0.81196417  0.47771528  0.65863345    -0.12600
C1333       C  0.90097293  0.05238590  0.95768919    -0.11000
C1334       C  0.88765734  0.04644148  0.98978874    -0.12600
C1335       C  0.50106011  0.49729919  0.01485380    -0.11000
C1336       C  0.50332399  0.01867375  0.99306341    -0.12600
C1337       C  0.93611523  0.08086996  0.77125958    -0.11000
C1338       C  0.93029629  0.07494119  0.73526030    -0.12600
C1339       C  0.95673260  0.15697423  0.04943704    -0.11000
C1340       C  0.96271725  0.14374694  0.01732422    -0.12600
C1341       C  0.51933252  0.17505264  0.85428424    -0.11000
C1342       C  0.53284785  0.19780688  0.84843243    -0.12600
C1343       C  0.56301601  0.03866848  0.84892416    -0.11000
C1344       C  0.58575425  0.02519986  0.85481676    -0.12600
O1345       O  0.91953292  0.58364256  0.90434000    -0.83100
O1346       O  0.94869066  0.62155444  0.95409059    -0.80100
C1347       C  0.96936266  0.63034217  0.97704226     1.00400
O1348       O  0.99574257  0.62824677  0.96465479    -0.80200
O1349       O  0.50531030  0.56809664  0.97101323    -0.82800
C1350       C  0.00409891  0.54096259  0.96202746     1.04900
O1351       O  0.00266872  0.53247036  0.92467494    -0.75600
O1352       O  0.94442227  0.54369809  0.92077462    -0.75700
C1353       C  0.92213496  0.55996022  0.92529219     1.04900
O1354       O  0.95066988  0.60744381  0.83092994    -0.83100
O1355       O  0.97903813  0.64776961  0.88096238    -0.80100
C1356       C  0.50653526  0.64872570  0.87269439     1.00400
O1357       O  0.52361457  0.62799334  0.88332458    -0.80200
O1358       O  0.53997269  0.57000445  0.89512815    -0.82800
C1359       C  0.53756545  0.55581360  0.86106509     1.04900
O1360       O  0.51270453  0.55311345  0.84321646    -0.75600
O1361       O  0.95076490  0.55905843  0.83343017    -0.75700
C1362       C  0.94621754  0.58277708  0.81386676     1.04800
Cr1363     Cr  0.95186595  0.61319495  0.89283090     1.93700
Cr1364     Cr  0.51369393  0.59785947  0.92631780     1.93200
Cr1365     Cr  0.97756480  0.55027709  0.88128227     1.39100
O1366       O  0.98121007  0.58745775  0.89917938    -1.20800
O1367       O  0.92812602  0.58937904  0.60170333    -0.83100
O1368       O  0.88962169  0.56015268  0.55305981    -0.80100
C1369       C  0.88068572  0.53931463  0.53042896     1.00400
O1370       O  0.88274475  0.51297971  0.54303566    -0.80200
O1371       O  0.94260599  0.00270342  0.53748772    -0.82800
C1372       C  0.96965290  0.50396489  0.54646813     1.04900
O1373       O  0.97787508  0.50491243  0.58393480    -0.75600
O1374       O  0.96769016  0.56350126  0.58577043    -0.75700
C1375       C  0.95191098  0.58605141  0.58091242     1.04900
O1376       O  0.90362529  0.55966314  0.67612816    -0.83100
O1377       O  0.86293483  0.53110690  0.62681120    -0.80100
C1378       C  0.86147924  0.00364840  0.63520786     1.00400
O1379       O  0.88206813  0.98619368  0.62505139    -0.80200
O1380       O  0.94001267  0.96913906  0.61487340    -0.82800
C1381       C  0.95367984  0.97230412  0.64926768     1.04900
O1382       O  0.95638908  0.99757470  0.66596475    -0.75600
O1383       O  0.95194194  0.55964440  0.67299729    -0.75700
C1384       C  0.92830027  0.56440071  0.69281437     1.04800
Cr1385     Cr  0.89792714  0.55771208  0.61427192     1.93700
Cr1386     Cr  0.91262492  0.99515503  0.58221170     1.93200
Cr1387     Cr  0.96036026  0.53145639  0.62637034     1.39100
O1388       O  0.92323597  0.52797736  0.60853003    -1.20800
O1389       O  0.55997625  0.97237382  0.08716695    -0.83100
O1390       O  0.50172192  0.98353962  0.08325580    -0.80100
C1391       C  0.50029507  0.97502596  0.04591234     1.00400
O1392       O  0.99909965  0.94788640  0.03695471    -0.80200
O1393       O  0.50872035  0.88774681  0.04337238    -0.82800
C1394       C  0.53509834  0.88568035  0.03096582     1.04900
O1395       O  0.55576655  0.89450565  0.05389379    -0.75600
O1396       O  0.58490323  0.93245487  0.10360637    -0.75700
C1397       C  0.58227676  0.95613087  0.08264595     1.04900
O1398       O  0.55364845  0.95703340  0.17452982    -0.83100
O1399       O  0.99170429  0.96292884  0.16473523    -0.80100
C1400       C  0.96684578  0.96020892  0.14688597     1.00400
O1401       O  0.96444695  0.94599066  0.11284501    -0.80200
O1402       O  0.98086398  0.88801817  0.12471231    -0.82800
C1403       C  0.99796433  0.86730186  0.13533953     1.04900
O1404       O  0.52545842  0.86828054  0.12705232    -0.75600
O1405       O  0.55380505  0.90864728  0.17704326    -0.75700
C1406       C  0.55823246  0.93332188  0.19409591     1.04800
Cr1407     Cr  0.52684128  0.96577641  0.12666706     1.93700
Cr1408     Cr  0.99074807  0.91813964  0.08168322     1.93200
Cr1409     Cr  0.55259787  0.90287775  0.11514900     1.39100
O1410       O  0.52322767  0.92858510  0.10879967    -1.20800
O1411       O  0.53682854  0.95258103  0.42223028    -0.83100
O1412       O  0.52662143  0.01116900  0.42402147    -0.80100
C1413       C  0.53485652  0.51214703  0.46148066     1.00400
O1414       O  0.56190606  0.51342021  0.47044147    -0.80200
O1415       O  0.62176271  0.50314732  0.46486736    -0.82800
C1416       C  0.62381547  0.97681881  0.47750353     1.04900
O1417       O  0.61488592  0.95596879  0.45488909    -0.75600
O1418       O  0.57639053  0.92670939  0.40627102    -0.75700
C1419       C  0.55261142  0.93003218  0.42707776     1.04900
O1420       O  0.55255177  0.95641198  0.33498843    -0.83100
O1421       O  0.54807801  0.51847903  0.34197295    -0.80100
C1422       C  0.55078595  0.54375796  0.35864434     1.00400
O1423       O  0.56446767  0.54694401  0.39302246    -0.80200
O1424       O  0.62241487  0.52990089  0.38282618    -0.82800
C1425       C  0.64301083  0.51244908  0.37269004     1.04900
O1426       O  0.64156377  0.98499491  0.38111638    -0.75600
O1427       O  0.60086760  0.95642350  0.33182231    -0.75700
C1428       C  0.57618906  0.95167811  0.31514959     1.04800
Cr1429     Cr  0.54413347  0.98461327  0.38159910     1.93700
Cr1430     Cr  0.59187167  0.52095138  0.42569154     1.93200
Cr1431     Cr  0.60657730  0.95838555  0.39367709     1.39100
O1432       O  0.58126135  0.98811424  0.39941135    -1.20800
O1433       O  0.67669682  0.92536936  0.90505238    -0.83100
O1434       O  0.63903000  0.95511619  0.95496627    -0.80100
C1435       C  0.63018948  0.97599476  0.97773234     1.00400
O1436       O  0.63223868  0.50226658  0.96499982    -0.80200
O1437       O  0.69234885  0.51158843  0.97102972    -0.82800
C1438       C  0.71947612  0.51012872  0.96199353     1.04900
O1439       O  0.72807457  0.00844099  0.92463077    -0.75600
O1440       O  0.71671315  0.95019377  0.92105836    -0.75700
C1441       C  0.70037548  0.92799827  0.92580498     1.04900
O1442       O  0.65300339  0.95600373  0.83169314    -0.83100
O1443       O  0.61283210  0.98501609  0.88180793    -0.80100
C1444       C  0.61200487  0.51244516  0.87317926     1.00400
O1445       O  0.63280364  0.52952681  0.88342844    -0.80200
O1446       O  0.69078521  0.54574172  0.89496369    -0.82800
C1447       C  0.70502341  0.54303691  0.86086918     1.04900
O1448       O  0.70763199  0.51803653  0.84314808    -0.75600
O1449       O  0.70138951  0.95602770  0.83372737    -0.75700
C1450       C  0.67763722  0.95130562  0.81446483     1.04800
Cr1451     Cr  0.64729448  0.95775834  0.89360174     1.93700
Cr1452     Cr  0.66276778  0.51980457  0.92640454     1.93200
Cr1453     Cr  0.71027400  0.98312043  0.88140689     1.39100
O1454       O  0.67310792  0.98705968  0.89947599    -1.20800
O1455       O  0.66916555  0.93208061  0.60207713    -0.83100
O1456       O  0.69907791  0.89436350  0.55255545    -0.80100
C1457       C  0.72000221  0.88571929  0.52964037     1.00400
O1458       O  0.74625353  0.88790575  0.54218934    -0.80200
O1459       O  0.75538204  0.94803359  0.53622567    -0.82800
C1460       C  0.75400518  0.97509545  0.54543237     1.04900
O1461       O  0.75228615  0.98352338  0.58278643    -0.75600
O1462       O  0.69401491  0.97226814  0.58636545    -0.75700
C1463       C  0.67181436  0.95598172  0.58154986     1.04900
O1464       O  0.69973253  0.90829852  0.67582380    -0.83100
O1465       O  0.72899405  0.86827044  0.62582282    -0.80100
C1466       C  0.75645378  0.86753479  0.63410206     1.00400
O1467       O  0.77343532  0.88839320  0.62360656    -0.80200
O1468       O  0.78951119  0.94637071  0.61208931    -0.82800
C1469       C  0.78672689  0.96042618  0.64626447     1.04900
O1470       O  0.76169087  0.96284416  0.66409479    -0.75600
O1471       O  0.69966527  0.95668214  0.67359026    -0.75700
C1472       C  0.69514571  0.93291152  0.69306404     1.04800
Cr1473     Cr  0.70159705  0.90265846  0.61386747     1.93700
Cr1474     Cr  0.76364553  0.91838038  0.58072892     1.93200
Cr1475     Cr  0.72685630  0.96564038  0.62592555     1.39100
O1476       O  0.73084416  0.92854275  0.60780374    -1.20800
O1477       O  0.78770204  0.56589532  0.08694682    -0.83100
O1478       O  0.77633327  0.50765159  0.08335171    -0.80100
C1479       C  0.78491245  0.50598705  0.04597807     1.00400
O1480       O  0.81203552  0.00452934  0.03691429    -0.80200
O1481       O  0.87215258  0.51382699  0.04289764    -0.82800
C1482       C  0.87421139  0.54010262  0.03018929     1.04900
O1483       O  0.86538694  0.56097524  0.05297802    -0.75600
O1484       O  0.82773258  0.59071009  0.10291664    -0.75700
C1485       C  0.80404625  0.58808420  0.08218086     1.04900
O1486       O  0.80305690  0.56003956  0.17426091    -0.83100
O1487       O  0.79681517  0.99802958  0.16480884    -0.80100
C1488       C  0.79941704  0.97303517  0.14706767     1.00400
O1489       O  0.81363112  0.97034327  0.11295144    -0.80200
O1490       O  0.87161787  0.98653934  0.12444407    -0.82800
C1491       C  0.89241781  0.00361423  0.13471261     1.04900
O1492       O  0.89159291  0.53104860  0.12611506    -0.75600
O1493       O  0.85144335  0.56006859  0.17625721    -0.75700
C1494       C  0.82681589  0.56477045  0.19350196     1.04800
Cr1495     Cr  0.79415531  0.53295815  0.12657491     1.93700
Cr1496     Cr  0.84163616  0.99628627  0.08150473     1.93200
Cr1497     Cr  0.85713446  0.55831790  0.11434450     1.39100
O1498       O  0.83131429  0.52902205  0.10847097    -1.20800
O1499       O  0.81043778  0.54389854  0.42162351    -0.83100
O1500       O  0.75216461  0.53262906  0.42515674    -0.80100
C1501       C  0.75040470  0.54107181  0.46250062     1.00400
O1502       O  0.74902109  0.56813675  0.47168579    -0.80200
O1503       O  0.75815692  0.62825944  0.46569313    -0.82800
C1504       C  0.78440075  0.63043889  0.47827639     1.04900
O1505       O  0.80533837  0.62179771  0.45538251    -0.75600
O1506       O  0.83528606  0.58408320  0.40589572    -0.75700
C1507       C  0.83263957  0.56018489  0.42643055     1.04900
O1508       O  0.80481777  0.55945634  0.33438273    -0.83100
O1509       O  0.74279152  0.55327562  0.34382586    -0.80100
C1510       C  0.71774601  0.55569593  0.36162810     1.00400
O1511       O  0.71494069  0.56976990  0.39578398    -0.80200
O1512       O  0.73101669  0.62774573  0.38424419    -0.82800
C1513       C  0.74799843  0.64860876  0.37377069     1.04900
O1514       O  0.77545331  0.64787867  0.38208156    -0.75600
O1515       O  0.80473762  0.60783965  0.33211449    -0.75700
C1516       C  0.80933233  0.58322114  0.31489180     1.04800
Cr1517     Cr  0.77760978  0.55050482  0.38203017     1.93700
Cr1518     Cr  0.74078580  0.59777394  0.42715225     1.93200
Cr1519     Cr  0.80284967  0.61349488  0.39406945     1.39100
O1520       O  0.77360410  0.58760696  0.40012171    -1.20800
O1521       O  0.83497053  0.68269886  0.90525111    -0.83100
O1522       O  0.80539144  0.64455814  0.95457499    -0.80100
C1523       C  0.78450266  0.63577024  0.97743466     1.00400
O1524       O  0.75823770  0.63787253  0.96496903    -0.80200
O1525       O  0.74860147  0.69795561  0.97120543    -0.82800
C1526       C  0.74985166  0.72506702  0.96217029     1.04900
O1527       O  0.75130814  0.73349151  0.92478808    -0.75600
O1528       O  0.80974737  0.72255966  0.92161632    -0.75700
C1529       C  0.83210004  0.70642270  0.92612097     1.04900
O1530       O  0.80473235  0.65892099  0.83145132    -0.83100
O1531       O  0.77587621  0.61841635  0.88111868    -0.80100
C1532       C  0.74843592  0.61738220  0.87285398     1.00400
O1533       O  0.73120687  0.63803745  0.88351981    -0.80200
O1534       O  0.71470984  0.69592041  0.89496782    -0.82800
C1535       C  0.71750630  0.70992705  0.86077358     1.04900
O1536       O  0.74258659  0.71272467  0.84323023    -0.75600
O1537       O  0.80467667  0.70728081  0.83436002    -0.75700
C1538       C  0.80941629  0.68365059  0.81463775     1.04800
Cr1539     Cr  0.80286747  0.65302784  0.89333272     1.93700
Cr1540     Cr  0.74066011  0.66819023  0.92649664     1.93200
Cr1541     Cr  0.77713949  0.71584565  0.88176501     1.39100
O1542       O  0.77340658  0.67865494  0.89957080    -1.20800
O1543       O  0.82697242  0.67534620  0.60498668    -0.83100
O1544       O  0.86410191  0.70344774  0.55313494    -0.80100
C1545       C  0.87265798  0.72357347  0.52894648     1.00400
O1546       O  0.87131997  0.75023576  0.54027743    -0.80200
O1547       O  0.81174209  0.76050858  0.53599554    -0.82800
C1548       C  0.78478664  0.75980076  0.54568574     1.04900
O1549       O  0.77650196  0.75870736  0.58321688    -0.75600
O1550       O  0.78750798  0.70042261  0.58734221    -0.75700
C1551       C  0.80362870  0.67799328  0.58340774     1.04900
O1552       O  0.85199409  0.70743620  0.67632275    -0.83100
O1553       O  0.89202419  0.73477444  0.62320706    -0.80100
C1554       C  0.89346268  0.76247527  0.62976324     1.00400
O1555       O  0.87239247  0.77940447  0.62051562    -0.80200
O1556       O  0.81444389  0.79575908  0.61115251    -0.82800
C1557       C  0.80054725  0.79347018  0.64566737     1.04900
O1558       O  0.79794220  0.76868140  0.66395788    -0.75600
O1559       O  0.80362163  0.70668592  0.67430194    -0.75700
C1560       C  0.82744271  0.70248780  0.69366097     1.04800
Cr1561     Cr  0.85699190  0.70760361  0.61426096     1.93700
Cr1562     Cr  0.84175537  0.76910775  0.57930593     1.93200
Cr1563     Cr  0.79446861  0.73354261  0.62644160     1.39100
O1564       O  0.83146343  0.73699609  0.60770062    -1.20800
O1565       O  0.71685833  0.81568463  0.42065012    -0.83100
O1566       O  0.72789531  0.75739990  0.42473045    -0.80100
C1567       C  0.71960098  0.75627545  0.46225521     1.00400
O1568       O  0.69264368  0.75555233  0.47193045    -0.80200
O1569       O  0.63306702  0.76580850  0.46763197    -0.82800
C1570       C  0.63172421  0.79246560  0.47898824     1.04900
O1571       O  0.64026598  0.81260535  0.45481184    -0.75600
O1572       O  0.67738856  0.84074893  0.40299146    -0.75700
C1573       C  0.70073305  0.83811195  0.42457205     1.04900
O1574       O  0.70077289  0.80944659  0.33368184    -0.83100
O1575       O  0.70648145  0.74745334  0.34396914    -0.80100
C1576       C  0.70388208  0.72265405  0.36223116     1.00400
O1577       O  0.68997581  0.72034051  0.39673490    -0.80200
O1578       O  0.63202259  0.73667224  0.38736224    -0.82800
C1579       C  0.61094526  0.75359471  0.37812463     1.04900
O1580       O  0.61236947  0.78129303  0.38470645    -0.75600
O1581       O  0.65240204  0.80866310  0.33162164    -0.75700
C1582       C  0.67695762  0.81362548  0.31430170     1.04800
Cr1583     Cr  0.70992639  0.78257544  0.38152143     1.93700
Cr1584     Cr  0.66264513  0.74696422  0.42859604     1.93200
Cr1585     Cr  0.64738801  0.80847643  0.39368380     1.39100
O1586       O  0.67292911  0.77909432  0.40023746    -1.20800
O1587       O  0.69474716  0.79347468  0.08640821    -0.83100
O1588       O  0.75318446  0.78256560  0.08318484    -0.80100
C1589       C  0.75460409  0.79097852  0.04579456     1.00400
O1590       O  0.75584614  0.81808774  0.03674167    -0.80200
O1591       O  0.74621647  0.87817671  0.04295786    -0.82800
C1592       C  0.71994718  0.88027978  0.03051402     1.04900
O1593       O  0.69906923  0.87148517  0.05338708    -0.75600
O1594       O  0.66951831  0.83334088  0.10273057    -0.75700
C1595       C  0.67239719  0.80961154  0.08187769     1.04900
O1596       O  0.69984945  0.80878123  0.17365170    -0.83100
O1597       O  0.76194402  0.80335884  0.16472206    -0.80100
C1598       C  0.78701375  0.80615628  0.14714555     1.00400
O1599       O  0.78978468  0.82014992  0.11293697    -0.80200
O1600       O  0.77327584  0.87803026  0.12438168    -0.82800
C1601       C  0.75604230  0.89867627  0.13507285     1.04900
O1602       O  0.72859894  0.89763603  0.12682989    -0.75600
O1603       O  0.69974691  0.85714282  0.17651178    -0.75700
C1604       C  0.69507314  0.83241750  0.19334217     1.04800
Cr1605     Cr  0.72736957  0.80021389  0.12622603     1.93700
Cr1606     Cr  0.76381026  0.84786647  0.08142599     1.93200
Cr1607     Cr  0.70161131  0.86302153  0.11462995     1.39100
O1608       O  0.73107937  0.83740123  0.10839149    -1.20800
O1609       O  0.57901077  0.84052983  0.90513051    -0.83100
O1610       O  0.61613915  0.81046539  0.95486865    -0.80100
C1611       C  0.62478950  0.78951017  0.97748820     1.00400
O1612       O  0.62261650  0.76326040  0.96470781    -0.80200
O1613       O  0.56237478  0.75431444  0.97097972    -0.82800
C1614       C  0.53530648  0.75595653  0.96202009     1.04900
O1615       O  0.52693108  0.75781208  0.92469875    -0.75600
O1616       O  0.53875828  0.81595665  0.92125480    -0.75700
C1617       C  0.55522765  0.83802729  0.92602353     1.04900
O1618       O  0.60297743  0.80970398  0.83167025    -0.83100
O1619       O  0.64254384  0.78046813  0.88163652    -0.80100
C1620       C  0.64316652  0.75308659  0.87272322     1.00400
O1621       O  0.62221745  0.73611407  0.88300727    -0.80200
O1622       O  0.56412017  0.72024860  0.89485389    -0.82800
C1623       C  0.55011225  0.72305136  0.86080113     1.04900
O1624       O  0.54774201  0.74808561  0.84314290    -0.75600
O1625       O  0.55458334  0.81005157  0.83385927    -0.75700
C1626       C  0.57848432  0.81451465  0.81449690     1.04800
Cr1627     Cr  0.60824007  0.80793174  0.89355220     1.93700
Cr1628     Cr  0.59214613  0.74596395  0.92621292     1.93200
Cr1629     Cr  0.54516764  0.78301813  0.88148625     1.39100
O1630       O  0.58218559  0.77880454  0.89943466    -1.20800
O1631       O  0.58043210  0.84923091  0.57733296    -0.83100
O1632       O  0.54041914  0.89277049  0.56490419    -0.80100
C1633       C  0.52955075  0.88285859  0.53112695     1.00400
O1634       O  0.51198125  0.86141131  0.53203296    -0.80200
O1635       O  0.98944529  0.80816805  0.55520332    -0.82800
C1636       C  0.50941315  0.78957717  0.54698783     1.04900
O1637       O  0.53314894  0.78882733  0.56696205    -0.75600
O1638       O  0.57915534  0.80801111  0.61283434    -0.75700
C1639       C  0.58915485  0.82314104  0.58254553     1.04900
O1640       O  0.57060208  0.85177223  0.66829767    -0.83100
O1641       O  0.52488063  0.89149394  0.65327796    -0.80100
C1642       C  0.99993588  0.89996077  0.64031495     1.00400
O1643       O  0.98797760  0.88799346  0.60857140    -0.80200
O1644       O  0.96927978  0.83230520  0.63283048    -0.82800
C1645       C  0.97036462  0.80515956  0.64156546     1.04900
O1646       O  0.99411457  0.79077803  0.63698637    -0.75600
O1647       O  0.53946862  0.81602808  0.68337761    -0.75700
C1648       C  0.55961480  0.83349129  0.69423853     1.04800
Cr1649     Cr  0.55233916  0.86917522  0.61584720     1.93700
Cr1650     Cr  0.99225678  0.84724879  0.58410536     1.93200
Cr1651     Cr  0.53576677  0.80372930  0.62444083     1.39100
O1652       O  0.52644964  0.84013332  0.60873565    -1.20800
O1653       O  0.92528623  0.70801853  0.39516491    -0.83100
O1654       O  0.97131498  0.72720496  0.44100000    -0.80100
C1655       C  0.99506572  0.72646451  0.46093980     1.00400
O1656       O  0.51503521  0.70788152  0.45269495    -0.80200
O1657       O  0.99252467  0.65463759  0.47590099    -0.82800
C1658       C  0.97495373  0.63319230  0.47683430     1.04900
O1659       O  0.96406616  0.62327316  0.44307390    -0.75600
O1660       O  0.92403343  0.66679948  0.43067154    -0.75700
C1661       C  0.91529320  0.69288290  0.42545171     1.04900
O1662       O  0.96494251  0.70000580  0.32459313    -0.83100
O1663       O  0.51031313  0.72526574  0.37093430    -0.80100
C1664       C  0.53406215  0.71088821  0.36632048     1.00400
O1665       O  0.53515491  0.68374121  0.37504397    -0.80200
O1666       O  0.51648584  0.62805147  0.39934176    -0.82800
C1667       C  0.50451151  0.61607955  0.36761470     1.04900
O1668       O  0.97955738  0.62454009  0.35468103    -0.75600
O1669       O  0.93382492  0.66425278  0.33970216    -0.75700
C1670       C  0.94479658  0.68253635  0.31375209     1.04800
Cr1671     Cr  0.96867001  0.71230585  0.38352226     1.93700
Cr1672     Cr  0.51221349  0.66879762  0.42380279     1.93200
Cr1673     Cr  0.95211503  0.64685780  0.39213708     1.39100
O1674       O  0.97800278  0.67590450  0.39921690    -1.20800
O1675       O  0.96575213  0.70003007  0.08680279    -0.83100
O1676       O  0.97764001  0.75816303  0.08336817    -0.80100
C1677       C  0.96929389  0.76002339  0.04603440     1.00400
O1678       O  0.94223288  0.76168200  0.03703340    -0.80200
O1679       O  0.88197404  0.75278758  0.04321249    -0.82800
C1680       C  0.87976543  0.72653461  0.03045646     1.04900
O1681       O  0.88838773  0.70557804  0.05309477    -0.75600
O1682       O  0.92546776  0.67549528  0.10288313    -0.75700
C1683       C  0.94926186  0.67797723  0.08201082     1.04900
O1684       O  0.94987668  0.70595819  0.17417512    -0.83100
O1685       O  0.95678087  0.76792204  0.16488756    -0.80100
C1686       C  0.95443558  0.79295578  0.14721823     1.00400
O1687       O  0.94045423  0.79576103  0.11314376    -0.80200
O1688       O  0.88233431  0.77995054  0.12490645    -0.82800
C1689       C  0.86136832  0.76299613  0.13518357     1.04900
O1690       O  0.86197406  0.73561231  0.12628474    -0.75600
O1691       O  0.90148239  0.70635153  0.17630340    -0.75700
C1692       C  0.92595959  0.70151650  0.19350595     1.04800
Cr1693     Cr  0.95934798  0.73297888  0.12655756     1.93700
Cr1694     Cr  0.91243164  0.77006478  0.08174957     1.93200
Cr1695     Cr  0.89625976  0.70811861  0.11441673     1.39100
O1696       O  0.92234470  0.73722178  0.10855627    -1.20800
C1697       C  0.92743374  0.69109177  0.23602684    -0.11000
C1698       C  0.93343614  0.68497833  0.27188294    -0.12600
C1699       C  0.50016901  0.74836051  0.49160067    -0.11000
C1700       C  0.50432293  0.76768272  0.51632035    -0.12600
C1701       C  0.51298739  0.75678194  0.99309830    -0.11000
C1702       C  0.99163535  0.75918855  0.01498855    -0.07800
C1703       C  0.57096180  0.83104402  0.73611784    -0.11000
C1704       C  0.57697433  0.82493469  0.77197345    -0.12600
C1705       C  0.81236949  0.78924092  0.15972550    -0.11000
C1706       C  0.83516493  0.77583770  0.15383331    -0.12600
C1707       C  0.63818409  0.79575445  0.01774344    -0.11000
C1708       C  0.65142470  0.80180242  0.04966374    -0.12600
C1709       C  0.60785625  0.80984777  0.55102347    -0.11000
C1710       C  0.61955542  0.80043709  0.51944269    -0.12600
C1711       C  0.56110021  0.72686230  0.35895088    -0.11000
C1712       C  0.58393320  0.74034533  0.36344567    -0.12600
C1713       C  0.67865550  0.82408387  0.27179139    -0.11000
C1714       C  0.68455084  0.83029287  0.23584414    -0.12600
C1715       C  0.76265261  0.75912356  0.51505111    -0.11000
C1716       C  0.74172738  0.75693551  0.49290135    -0.12600
C1717       C  0.88484462  0.71558060  0.48851255    -0.11000
C1718       C  0.89656740  0.70616372  0.45695394    -0.12600
C1719       C  0.92048230  0.77571716  0.64442863    -0.11000
C1720       C  0.94332034  0.78919218  0.64892141    -0.12600
C1721       C  0.75089015  0.74734827  0.99313817    -0.11000
C1722       C  0.75353641  0.76868853  0.01484100    -0.12600
C1723       C  0.81990123  0.68578991  0.77211898    -0.11000
C1724       C  0.82576169  0.69201659  0.73616673    -0.12600
C1725       C  0.85309178  0.71423143  0.95831213    -0.11000
C1726       C  0.86635412  0.72028685  0.99021228    -0.12600
C1727       C  0.69216601  0.72685671  0.84817452    -0.11000
C1728       C  0.66937306  0.74026433  0.85405916    -0.12600
C1729       C  0.79061907  0.64374908  0.51871391    -0.11000
C1730       C  0.79639140  0.65689475  0.55091523    -0.12600
C1731       C  0.72109417  0.69730344  0.35000150    -0.11000
C1732       C  0.73499213  0.67479447  0.35558586    -0.12600
C1733       C  0.76865103  0.92500201  0.15353546    -0.11000
C1734       C  0.78214450  0.94773741  0.15939342    -0.12600
C1735       C  0.82503562  0.57533467  0.23599784    -0.11000
C1736       C  0.81941509  0.58137476  0.27211584    -0.12600
C1737       C  0.79658021  0.60909773  0.04976112    -0.11000
C1738       C  0.79078113  0.62235191  0.01770691    -0.12600
C1739       C  0.71376022  0.87239272  0.48922108    -0.11000
C1740       C  0.70797355  0.85922762  0.45704117    -0.12600
C1741       C  0.76946161  0.84134889  0.65228467    -0.11000
C1742       C  0.78335098  0.81883575  0.65787933    -0.12600
C1743       C  0.75332526  0.99736333  0.51467262    -0.11000
C1744       C  0.75104918  0.51881450  0.49327678    -0.12600
C1745       C  0.70784347  0.90697566  0.95821302    -0.11000
C1746       C  0.71365147  0.89370918  0.99025411    -0.12600
C1747       C  0.76277492  0.50685546  0.01495701    -0.11000
C1748       C  0.74159924  0.50928107  0.99303576    -0.12600
C1749       C  0.68506211  0.93474182  0.73584016    -0.11000
C1750       C  0.67943279  0.94076055  0.77196164    -0.12600
C1751       C  0.72231515  0.56832509  0.84855198    -0.11000
C1752       C  0.73582180  0.59105438  0.85440224    -0.12600
C1753       C  0.54416062  0.90931702  0.45944838    -0.11000
C1754       C  0.53710084  0.89638202  0.49131712    -0.12600
C1755       C  0.53375119  0.56871868  0.34467778    -0.11000
C1756       C  0.51911801  0.59091800  0.34886223    -0.12600
C1757       C  0.63739095  0.97029364  0.51764406    -0.11000
C1758       C  0.65073675  0.96393070  0.54941458    -0.12600
C1759       C  0.69252011  0.53839015  0.34925631    -0.11000
C1760       C  0.66970668  0.52487352  0.35472837    -0.12600
C1761       C  0.54174851  0.87226529  0.99069251    -0.11000
C1762       C  0.54774350  0.85903245  0.95858849    -0.12600
C1763       C  0.97169242  0.81820084  0.15961041    -0.11000
C1764       C  0.98519351  0.84096467  0.15376115    -0.12600
C1765       C  0.94139373  0.97736755  0.15898593    -0.11000
C1766       C  0.91866371  0.99084695  0.15307400    -0.12600
C1767       C  0.56835026  0.93524138  0.23669530    -0.11000
C1768       C  0.57418256  0.94115733  0.27269448    -0.12600
C1769       C  0.61673851  0.96966550  0.01813423    -0.11000
C1770       C  0.60342720  0.96371885  0.05023777    -0.12600
C1771       C  0.98532429  0.92512528  0.65905266    -0.11000
C1772       C  0.97069756  0.94732974  0.66322985    -0.12600
C1773       C  0.96742117  0.61968185  0.51665756    -0.11000
C1774       C  0.96036769  0.60675874  0.54853763    -0.12600
C1775       C  0.99185224  0.50615021  0.51526140    -0.11000
C1776       C  0.51266716  0.50998149  0.49270399    -0.12600
C1777       C  0.86709160  0.54586038  0.49030577    -0.11000
C1778       C  0.85372799  0.55223377  0.45855370    -0.12600
C1779       C  0.83478146  0.99122520  0.65316319    -0.11000
C1780       C  0.81196427  0.97771519  0.65863348    -0.12600
C1781       C  0.90097292  0.55238592  0.95768925    -0.11000
C1782       C  0.88765744  0.54644150  0.98978877    -0.12600
C1783       C  0.50106004  0.99729909  0.01485376    -0.11000
C1784       C  0.50332400  0.51867384  0.99306342    -0.12600
C1785       C  0.93611525  0.58086998  0.77125957    -0.11000
C1786       C  0.93029625  0.57494121  0.73526031    -0.12600
C1787       C  0.95673256  0.65697422  0.04943701    -0.11000
C1788       C  0.96271726  0.64374693  0.01732416    -0.12600
C1789       C  0.51933252  0.67505265  0.85428421    -0.11000
C1790       C  0.53284784  0.69780692  0.84843238    -0.12600
C1791       C  0.56301608  0.53866852  0.84892413    -0.11000
C1792       C  0.58575422  0.52519995  0.85481672    -0.12600
loop_ 
_geom_bond_atom_site_label_1 
_geom_bond_atom_site_label_2 
_geom_bond_distance 
_geom_bond_site_symmetry_2 
_ccdc_geom_bond_type 
O1          Cr19   2.016       .  S
O1            C9   1.268       .  A
O2          Cr19   1.987       .  S
O2            C3   1.254       .  A
C3            O4   1.259       .  A
C3          C444   1.446   1_556  S
O4         Cr916   2.006       .  S
O5          Cr20   1.993       .  S
O5          C902   1.262       .  A
C6            O7   1.249       .  A
C6          O901   1.262       .  A
C6         C1336   1.411       .  S
O7          Cr21   1.964       .  S
O8          Cr21   1.974       .  S
O8            C9   1.257       .  A
C9          C437   1.444       .  S
O10         Cr19   1.985       .  S
O10          C18   1.258       .  A
O11         Cr19   2.025       .  S
O11         C908   1.272       .  A
C12          O13   1.263       .  A
C12         O907   1.272   1_455  A
C12         C445   1.448       .  S
O13         Cr20   1.981       .  S
O14         Cr20   1.993       .  S
O14          C15   1.263       .  A
C15          O16   1.269       .  A
C15         C447   1.440       .  S
O16        Cr917   1.998   1_455  S
O17         Cr21   1.990       .  S
O17          C18   1.258       .  A
C18         C441   1.434       .  S
Cr19         O22   1.779       .  S
Cr20        O900   2.006   1_455  S
Cr20        O918   1.773   1_455  S
Cr21        O912   1.998       .  S
Cr21         O22   1.784       .  S
O22        Cr916   1.773       .  S
O23         Cr41   2.020       .  S
O23          C31   1.269       .  A
O24         Cr41   1.986       .  S
O24          C25   1.254       .  A
C25          O26   1.261       .  A
C25         C433   1.449       .  S
O26        Cr490   2.012   1_545  S
O27         Cr42   1.990       .  S
O27         C476   1.260       .  A
C28          O29   1.250       .  A
C28         O475   1.260       .  A
C28         C431   1.412       .  S
O29         Cr43   1.969       .  S
O30         Cr43   1.968       .  S
O30          C31   1.256       .  A
C31         C430   1.442       .  S
O32         Cr41   1.985       .  S
O32          C40   1.258       .  A
O33         Cr41   2.029       .  S
O33         C482   1.273       .  A
C34          O35   1.262       .  A
C34         O481   1.273       .  A
C34         C435   1.448       .  S
O35         Cr42   1.978       .  S
O36         Cr42   2.004       .  S
O36          C37   1.267       .  A
C37          O38   1.267       .  A
C37         C428   1.439       .  S
O38        Cr491   1.991       .  S
O39         Cr43   1.990       .  S
O39          C40   1.258       .  A
C40         C442   1.434       .  S
Cr41         O44   1.776       .  S
Cr42        O474   2.012       .  S
Cr42        O492   1.772       .  S
Cr43        O486   1.991   1_545  S
Cr43         O44   1.784       .  S
O44        Cr490   1.772   1_545  S
O45         Cr63   1.974       .  S
O45          C53   1.257       .  A
O46         Cr63   1.964       .  S
O46          C47   1.249       .  A
C47         O944   1.262   1_455  A
C47         C439   1.411       .  S
O48         Cr64   1.993       .  S
O48         C943   1.262       .  A
O49        Cr960   2.006   1_455  S
O49          C50   1.259       .  A
C50          O51   1.254       .  A
C50         C417   1.446   1_554  S
O51         Cr65   1.987       .  S
O52         Cr65   2.016       .  S
O52          C53   1.268       .  A
C53         C426   1.444       .  S
O54         Cr63   1.990       .  S
O54          C62   1.258       .  A
O55        Cr959   1.998       .  S
O55          C56   1.269       .  A
C56          O57   1.263       .  A
C56         C421   1.440       .  S
O57         Cr64   1.993       .  S
O58         Cr64   1.981       .  S
O58          C59   1.263       .  A
C59         O956   1.272       .  A
C59         C420   1.448       .  S
O60         Cr65   2.026       .  S
O60         C955   1.272   1_455  A
O61         Cr65   1.984       .  S
O61          C62   1.258       .  A
C62         C423   1.434       .  S
Cr63        O951   1.998   1_455  S
Cr63         O66   1.784       .  S
Cr64        O945   2.006       .  S
Cr64        O962   1.773       .  S
Cr65         O66   1.779       .  S
O66        Cr960   1.773   1_455  S
O67         Cr85   1.968       .  S
O67          C75   1.256       .  A
O68         Cr85   1.969       .  S
O68         C517   1.250       .  A
C69          O70   1.260       .  A
C69         O516   1.250       .  A
C69         C432   1.412       .  S
O70         Cr86   1.990       .  S
O71         Cr86   2.012       .  S
O71         C520   1.261   1_545  A
C72          O73   1.254       .  A
C72         O519   1.261       .  A
C72         C413   1.449       .  S
O73         Cr87   1.986       .  S
O74         Cr87   2.020       .  S
O74          C75   1.269       .  A
C75         C409   1.442       .  S
O76         Cr85   1.990       .  S
O76          C84   1.258       .  A
O77        Cr533   1.991   1_545  S
O77          C78   1.267       .  A
C78          O79   1.267       .  A
C78         C411   1.439       .  S
O79         Cr86   2.004       .  S
O80         Cr86   1.978       .  S
O80          C81   1.262       .  A
C81         O530   1.273   1_545  A
C81         C416   1.448       .  S
O82         Cr87   2.029       .  S
O82         C529   1.273       .  A
O83         Cr87   1.985       .  S
O83          C84   1.258       .  A
C84         C424   1.434       .  S
Cr85        O525   1.991       .  S
Cr85         O88   1.784       .  S
Cr86        O536   1.772   1_545  S
Cr87         O88   1.776       .  S
O88        Cr534   1.772       .  S
O89        Cr107   2.015       .  S
O89          C97   1.267       .  A
O90        Cr107   1.987       .  S
O90          C91   1.254       .  A
C91         O540   1.260       .  A
C91         C425   1.447   1_556  S
O92        Cr108   2.007       .  S
O92         C539   1.260   1_545  A
O93        Cr108   1.990       .  S
O93          C94   1.262       .  A
C94         O543   1.250       .  A
C94         C404   1.410       .  S
O95        Cr109   1.965       .  S
O95         C542   1.250       .  A
O96        Cr109   1.974       .  S
O96          C97   1.257       .  A
C97         C401   1.443       .  S
O98        Cr107   1.984       .  S
O98         C106   1.258       .  A
O99        Cr107   2.026       .  S
O99         C548   1.272       .  A
C100        O101   1.263       .  A
C100        O547   1.272   1_545  A
C100        C448   1.447       .  S
O101       Cr108   1.979       .  S
O102       Cr108   1.993       .  S
O102        C103   1.263       .  A
C103        O104   1.269       .  A
C103        C407   1.440       .  S
O104       Cr557   1.998   1_545  S
O105       Cr109   1.991       .  S
O105        C106   1.259       .  A
C106        C406   1.434       .  S
Cr107       O110   1.779       .  S
Cr108       O558   1.773   1_545  S
Cr109       O552   1.998       .  S
Cr109       O110   1.784       .  S
O110       Cr556   1.773       .  S
O111       Cr129   2.019       .  S
O111        C119   1.269       .  A
O112       Cr129   1.987       .  S
O112        C113   1.254       .  A
C113        O114   1.260       .  A
C113        C395   1.448       .  S
O114       Cr130   2.008       .  S
O115       Cr130   1.987       .  S
O115        C116   1.261       .  A
C116        O117   1.248       .  A
C116        C399   1.404       .  S
O117       Cr131   1.961       .  S
O118       Cr131   1.975       .  S
O118        C119   1.257       .  A
C119        C414   1.447       .  S
O120       Cr129   1.986       .  S
O120        C128   1.258       .  A
O121       Cr129   2.027       .  S
O121        C122   1.273       .  A
C122        O123   1.262       .  A
C122        C397   1.445       .  S
O123       Cr130   1.975       .  S
O124       Cr130   1.996       .  S
O124        C125   1.264       .  A
C125        O126   1.269       .  A
C125        C436   1.442       .  S
O126       Cr131   1.999       .  S
O127       Cr131   1.989       .  S
O127        C128   1.258       .  A
C128        C405   1.434       .  S
Cr129       O132   1.778       .  S
Cr130       O132   1.773       .  S
Cr131       O132   1.784       .  S
O133       Cr151   1.974       .  S
O133        C141   1.257       .  A
O134       Cr151   1.965       .  S
O134        C135   1.250       .  A
C135        O584   1.262       .  A
C135        C403   1.410       .  S
O136       Cr152   1.991       .  S
O136        C583   1.262       .  A
O137       Cr600   2.007   1_545  S
O137        C138   1.259       .  A
C138        O139   1.254       .  A
C138        C438   1.446   1_554  S
O139       Cr153   1.987       .  S
O140       Cr153   2.015       .  S
O140        C141   1.267       .  A
C141        C393   1.443       .  S
O142       Cr151   1.991       .  S
O142        C150   1.259       .  A
O143       Cr599   1.998       .  S
O143        C144   1.269       .  A
C144        O145   1.263       .  A
C144        C390   1.440       .  S
O145       Cr152   1.993       .  S
O146       Cr152   1.979       .  S
O146        C147   1.263       .  A
C147        O596   1.272       .  A
C147        C422   1.447       .  S
O148       Cr153   2.026       .  S
O148        C595   1.272       .  A
O149       Cr153   1.984       .  S
O149        C150   1.258       .  A
C150        C391   1.434       .  S
Cr151       O591   1.998   1_545  S
Cr151       O154   1.784       .  S
Cr152       O585   2.007       .  S
Cr152       O602   1.773       .  S
Cr153       O154   1.779       .  S
O154       Cr600   1.773   1_545  S
O155       Cr173   1.975       .  S
O155        C163   1.257       .  A
O156       Cr173   1.961       .  S
O156        C157   1.248       .  A
C157        O158   1.261       .  A
C157        C400   1.404       .  S
O158       Cr174   1.986       .  S
O159       Cr174   2.008       .  S
O159        C160   1.260       .  A
C160        O161   1.254       .  A
C160        C385   1.448       .  S
O161       Cr175   1.987       .  S
O162       Cr175   2.019       .  S
O162        C163   1.269       .  A
C163        C434   1.447       .  S
O164       Cr173   1.989       .  S
O164        C172   1.258       .  A
O165       Cr173   1.999       .  S
O165        C166   1.269       .  A
C166        O167   1.264       .  A
C166        C415   1.442       .  S
O167       Cr174   1.996       .  S
O168       Cr174   1.975       .  S
O168        C169   1.262       .  A
C169        O170   1.273       .  A
C169        C388   1.445       .  S
O170       Cr175   2.027       .  S
O171       Cr175   1.986       .  S
O171        C172   1.258       .  A
C172        C392   1.434       .  S
Cr173       O176   1.784       .  S
Cr174       O176   1.773       .  S
Cr175       O176   1.778       .  S
O177       Cr195   2.017       .  S
O177        C185   1.268       .  A
O178       Cr195   1.987       .  S
O178        C179   1.254       .  A
C179        O180   1.259       .  A
C179        C394   1.446   1_556  S
O180       Cr196   2.005       .  S
O181       Cr196   1.992       .  S
O181        C182   1.262       .  A
C182        O183   1.249       .  A
C182        C377   1.410       .  S
O183       Cr197   1.964       .  S
O184       Cr197   1.974       .  S
O184        C185   1.257       .  A
C185        C381   1.444       .  S
O186       Cr195   1.985       .  S
O186        C194   1.258       .  A
O187       Cr195   2.026       .  S
O187        C188   1.272       .  A
C188        O189   1.263       .  A
C188        C408   1.447       .  S
O189       Cr196   1.979       .  S
O190       Cr196   1.993       .  S
O190        C191   1.264       .  A
C191        O192   1.269       .  A
C191        C383   1.438       .  S
O192       Cr197   1.997       .  S
O193       Cr197   1.988       .  S
O193        C194   1.257       .  A
C194        C379   1.433       .  S
Cr195       O198   1.778       .  S
Cr196       O198   1.773       .  S
Cr197       O198   1.784       .  S
O199       Cr217   2.018       .  S
O199        C207   1.269       .  A
O200       Cr217   1.976       .  S
O200        C201   1.252       .  A
C201        O202   1.261       .  A
C201        C373   1.441       .  S
O202       Cr218   2.010       .  S
O203       Cr218   1.978       .  S
O203        C204   1.258       .  A
C204        O205   1.249       .  A
C204        C371   1.401       .  S
O205       Cr219   1.964       .  S
O206       Cr219   1.973       .  S
O206        C207   1.256       .  A
C207        C386   1.445       .  S
O208       Cr217   1.983       .  S
O208        C216   1.258       .  A
O209       Cr217   2.029       .  S
O209        C210   1.273       .  A
C210        O211   1.260       .  A
C210        C375   1.442       .  S
O211       Cr218   1.968       .  S
O212       Cr218   1.998       .  S
O212        C213   1.266       .  A
C213        O214   1.269       .  A
C213        C398   1.439       .  S
O214       Cr219   1.994       .  S
O215       Cr219   1.992       .  S
O215        C216   1.259       .  A
C216        C380   1.433       .  S
Cr217       O220   1.775       .  S
Cr218       O220   1.772       .  S
Cr219       O220   1.782       .  S
O221       Cr239   1.973       .  S
O221        C229   1.256       .  A
O222       Cr239   1.964       .  S
O222        C223   1.249       .  A
C223        O224   1.258       .  A
C223        C372   1.401       .  S
O224       Cr240   1.978       .  S
O225       Cr240   2.010       .  S
O225        C226   1.261       .  A
C226        O227   1.252       .  A
C226        C366   1.441       .  S
O227       Cr241   1.976       .  S
O228       Cr241   2.018       .  S
O228        C229   1.269       .  A
C229        C396   1.445       .  S
O230       Cr239   1.992       .  S
O230        C238   1.259       .  A
O231       Cr239   1.994       .  S
O231        C232   1.269       .  A
C232        O233   1.266       .  A
C232        C387   1.439       .  S
O233       Cr240   1.998       .  S
O234       Cr240   1.968       .  S
O234        C235   1.260       .  A
C235        O236   1.273       .  A
C235        C368   1.442       .  S
O236       Cr241   2.029       .  S
O237       Cr241   1.983       .  S
O237        C238   1.258       .  A
C238        C369   1.433       .  S
Cr239       O242   1.782       .  S
Cr240       O242   1.772       .  S
Cr241       O242   1.775       .  S
O243       Cr261   1.974       .  S
O243        C251   1.257       .  A
O244       Cr261   1.964       .  S
O244        C245   1.249       .  A
C245        O246   1.262       .  A
C245        C378   1.410       .  S
O246       Cr262   1.992       .  S
O247       Cr262   2.005       .  S
O247        C248   1.259       .  A
C248        O249   1.254       .  A
C248        C402   1.446   1_554  S
O249       Cr263   1.987       .  S
O250       Cr263   2.017       .  S
O250        C251   1.268       .  A
C251        C364   1.444       .  S
O252       Cr261   1.988       .  S
O252        C260   1.257       .  A
O253       Cr261   1.997       .  S
O253        C254   1.269       .  A
C254        O255   1.264       .  A
C254        C361   1.438       .  S
O255       Cr262   1.993       .  S
O256       Cr262   1.979       .  S
O256        C257   1.263       .  A
C257        O258   1.272       .  A
C257        C389   1.447       .  S
O258       Cr263   2.026       .  S
O259       Cr263   1.985       .  S
O259        C260   1.258       .  A
C260        C370   1.433       .  S
Cr261       O264   1.784       .  S
Cr262       O264   1.773       .  S
Cr263       O264   1.778       .  S
O265       Cr283   2.014       .  S
O265        C273   1.267       .  A
O266       Cr283   1.986       .  S
O266        C267   1.254       .  A
C267        O268   1.260       .  A
C267        C363   1.446   1_556  S
O268       Cr284   2.008       .  S
O269       Cr284   1.991       .  S
O269        C270   1.262       .  A
C270        O271   1.249       .  A
C270        C357   1.410       .  S
O271       Cr285   1.964       .  S
O272       Cr285   1.974       .  S
O272        C273   1.257       .  A
C273        C418   1.444       .  S
O274       Cr283   1.983       .  S
O274        C282   1.258       .  A
O275       Cr283   2.023       .  S
O275        C276   1.272       .  A
C276        O277   1.263       .  A
C276        C384   1.445       .  S
O277       Cr284   1.979       .  S
O278       Cr284   1.993       .  S
O278        C279   1.263       .  A
C279        O280   1.269       .  A
C279        C446   1.441       .  S
O280       Cr285   1.999       .  S
O281       Cr285   1.991       .  S
O281        C282   1.259       .  A
C282        C360   1.433       .  S
Cr283       O286   1.779       .  S
Cr284       O286   1.772       .  S
Cr285       O286   1.784       .  S
O287       Cr305   1.978       .  S
O287        C295   1.256       .  A
O288       Cr305   2.015       .  S
O288        C289   1.265       .  A
C289        O290   1.256       .  A
C289        C410   1.445       .  S
O290      Cr1202   1.983   1_455  S
O291       Cr306   1.997       .  S
O291       C1188   1.261       .  A
C292        O293   1.251       .  A
C292       O1187   1.261   1_455  A
C292        C356   1.409       .  S
O293       Cr307   1.951       .  S
O294       Cr307   2.007       .  S
O294        C295   1.263       .  A
C295        C365   1.440       .  S
O296       Cr305   2.024       .  S
O296        C304   1.268       .  A
O297       Cr305   1.991       .  S
O297       C1194   1.264   1_455  A
C298        O299   1.269       .  A
C298       O1193   1.264       .  A
C298        C427   1.444       .  S
O299       Cr306   2.010       .  S
O300       Cr306   1.980       .  S
O300        C301   1.261       .  A
C301        O302   1.265       .  A
C301        C376   1.440       .  S
O302      Cr1203   2.013       .  S
O303       Cr307   1.961       .  S
O303        C304   1.257       .  A
C304        C359   1.433       .  S
Cr305       O308   1.777       .  S
Cr306      O1186   1.983       .  S
Cr306      O1204   1.768       .  S
Cr307      O1198   2.013   1_455  S
Cr307       O308   1.773       .  S
O308      Cr1202   1.768   1_455  S
O309       Cr327   2.007       .  S
O309        C317   1.263       .  A
O310       Cr327   1.951       .  S
O310        C311   1.251       .  A
C311       O1208   1.261       .  A
C311       C1251   1.409       .  S
O312       Cr328   1.997       .  S
O312       C1207   1.261   1_455  A
O313      Cr1224   1.982       .  S
O313        C314   1.256       .  A
C314        O315   1.265       .  A
C314        C429   1.445       .  S
O315       Cr329   2.015       .  S
O316       Cr329   1.978       .  S
O316        C317   1.256       .  A
C317        C374   1.440       .  S
O318       Cr327   1.961       .  S
O318        C326   1.257       .  A
O319      Cr1223   2.013   1_455  S
O319        C320   1.265       .  A
C320        O321   1.261       .  A
C320        C367   1.440       .  S
O321       Cr328   1.980       .  S
O322       Cr328   2.010       .  S
O322        C323   1.269       .  A
C323       O1220   1.264   1_455  A
C323        C412   1.444       .  S
O324       Cr329   1.991       .  S
O324       C1219   1.264       .  A
O325       Cr329   2.024       .  S
O325        C326   1.268       .  A
C326        C354   1.433       .  S
Cr327      O1215   2.013       .  S
Cr327       O330   1.773       .  S
Cr328      O1209   1.982   1_455  S
Cr328      O1226   1.768   1_455  S
Cr329       O330   1.777       .  S
O330      Cr1224   1.768       .  S
O331       Cr349   1.974       .  S
O331        C339   1.257       .  A
O332       Cr349   1.964       .  S
O332        C333   1.249       .  A
C333        O334   1.262       .  A
C333        C358   1.410       .  S
O334       Cr350   1.991       .  S
O335       Cr350   2.008       .  S
O335        C336   1.260       .  A
C336        O337   1.254       .  A
C336        C382   1.446   1_554  S
O337       Cr351   1.985       .  S
O338       Cr351   2.014       .  S
O338        C339   1.267       .  A
C339        C443   1.444       .  S
O340       Cr349   1.991       .  S
O340        C348   1.258       .  A
O341       Cr349   1.999       .  S
O341        C342   1.269       .  A
C342        O343   1.263       .  A
C342        C419   1.441       .  S
O343       Cr350   1.993       .  S
O344       Cr350   1.979       .  S
O344        C345   1.263       .  A
C345        O346   1.272       .  A
C345        C362   1.445       .  S
O346       Cr351   2.023       .  S
O347       Cr351   1.983       .  S
O347        C348   1.258       .  A
C348        C353   1.433       .  S
Cr349       O352   1.784       .  S
Cr350       O352   1.772       .  S
Cr351       O352   1.779       .  S
C353        C354   1.205       .  T
C355       C1207   1.409   1_455  S
C355        C356   1.191       .  T
C357       C1254   1.193   1_456  T
C358       C1253   1.193   1_554  T
C359        C360   1.205       .  T
C361        C362   1.211       .  T
C363        C364   1.212       .  T
C365        C366   1.209       .  T
C367        C368   1.210       .  T
C369        C370   1.205       .  T
C371        C372   1.187       .  T
C373        C374   1.209       .  T
C375        C376   1.210       .  T
C377        C378   1.193   1_556  T
C379        C380   1.205       .  T
C381        C382   1.212       .  T
C383        C384   1.211       .  T
C385        C386   1.213       .  T
C387        C388   1.211       .  T
C389        C390   1.212       .  T
C391        C392   1.205       .  T
C393        C394   1.212       .  T
C395        C396   1.213       .  T
C397        C398   1.211       .  T
C399        C848   1.190       .  T
C400        C847   1.190   1_545  T
C401        C402   1.212       .  T
C403        C404   1.193   1_554  T
C405        C406   1.205       .  T
C407        C408   1.212       .  T
C409        C410   1.211       .  T
C411        C412   1.210       .  T
C413        C414   1.214       .  T
C415        C416   1.213       .  T
C417        C418   1.212       .  T
C419        C420   1.212       .  T
C421        C422   1.212       .  T
C423        C424   1.205       .  T
C425        C426   1.212       .  T
C427        C428   1.210       .  T
C429        C430   1.211       .  T
C431       C1328   1.194       .  T
C432       C1327   1.194   1_455  T
C433        C434   1.214       .  T
C435        C436   1.213       .  T
C437        C438   1.212       .  T
C439        C888   1.194   1_554  T
C440        C902   1.411       .  S
C440        C887   1.194   1_546  T
C441        C442   1.205       .  T
C443        C444   1.212       .  T
C445        C446   1.212       .  T
C447        C448   1.212       .  T
O449       Cr467   2.016       .  S
O449        C457   1.268       .  A
O450       Cr467   1.987       .  S
O450        C451   1.254       .  A
C451        O452   1.259       .  A
C451        C892   1.446   1_556  S
O452      Cr1364   2.006       .  S
O453       Cr468   1.993       .  S
O453       C1350   1.262       .  A
C454       O1349   1.262       .  A
C454        O455   1.249       .  A
C454       C1784   1.411       .  S
O455       Cr469   1.964       .  S
O456       Cr469   1.974       .  S
O456        C457   1.257       .  A
C457        C885   1.444       .  S
O458       Cr467   1.985       .  S
O458        C466   1.258       .  A
O459       Cr467   2.025       .  S
O459       C1356   1.272       .  A
C460       O1355   1.272   1_455  A
C460        O461   1.263       .  A
C460        C893   1.448       .  S
O461       Cr468   1.981       .  S
O462       Cr468   1.993       .  S
O462        C463   1.263       .  A
C463        O464   1.269       .  A
C463        C895   1.440       .  S
O464      Cr1365   1.998   1_455  S
O465       Cr469   1.990       .  S
O465        C466   1.258       .  A
C466        C889   1.434       .  S
Cr467       O470   1.779       .  S
Cr468      O1348   2.006   1_455  S
Cr468      O1366   1.773   1_455  S
Cr469      O1360   1.998       .  S
Cr469       O470   1.784       .  S
O470      Cr1364   1.773       .  S
O471       Cr489   2.020       .  S
O471        C479   1.269       .  A
O472       Cr489   1.986       .  S
O472        C473   1.254       .  A
C473        O474   1.261       .  A
C473        C881   1.449       .  S
O475       Cr490   1.990   1_545  S
C476        O477   1.250       .  A
C476        C879   1.412       .  S
O477       Cr491   1.969       .  S
O478       Cr491   1.968       .  S
O478        C479   1.256       .  A
C479        C878   1.442       .  S
O480       Cr489   1.985       .  S
O480        C488   1.258       .  A
O481       Cr489   2.029       .  S
C482        O483   1.262   1_545  A
C482        C883   1.448   1_545  S
O483       Cr490   1.978       .  S
O484       Cr490   2.004       .  S
O484        C485   1.267       .  A
C485        O486   1.267       .  A
C485        C876   1.439       .  S
O487       Cr491   1.990       .  S
O487        C488   1.258       .  A
C488        C890   1.434       .  S
Cr489       O492   1.776       .  S
Cr491       O492   1.784       .  S
O493       Cr511   1.974       .  S
O493        C501   1.257       .  A
O494       Cr511   1.964       .  S
O494        C495   1.249       .  A
C495       O1392   1.262   1_455  A
C495        C887   1.411       .  S
O496       Cr512   1.993       .  S
O496       C1391   1.262       .  A
O497      Cr1408   2.006   1_455  S
O497        C498   1.259       .  A
C498        O499   1.254       .  A
C498        C865   1.446   1_554  S
O499       Cr513   1.987       .  S
O500       Cr513   2.016       .  S
O500        C501   1.268       .  A
C501        C874   1.444       .  S
O502       Cr511   1.990       .  S
O502        C510   1.258       .  A
O503      Cr1407   1.998       .  S
O503        C504   1.269       .  A
C504        O505   1.263       .  A
C504        C869   1.440       .  S
O505       Cr512   1.993       .  S
O506       Cr512   1.981       .  S
O506        C507   1.263       .  A
C507       O1404   1.272       .  A
C507        C868   1.448       .  S
O508       Cr513   2.026       .  S
O508       C1403   1.272   1_455  A
O509       Cr513   1.984       .  S
O509        C510   1.258       .  A
C510        C871   1.434       .  S
Cr511      O1399   1.998   1_455  S
Cr511       O514   1.784       .  S
Cr512      O1393   2.006       .  S
Cr512      O1410   1.773       .  S
Cr513       O514   1.779       .  S
O514      Cr1408   1.773   1_455  S
O515       Cr533   1.968       .  S
O515        C523   1.256       .  A
O516       Cr533   1.969   1_545  S
C517        O518   1.260       .  A
C517        C880   1.412       .  S
O518       Cr534   1.990       .  S
O519       Cr534   2.012       .  S
C520        O521   1.254       .  A
C520        C861   1.449       .  S
O521       Cr535   1.986       .  S
O522       Cr535   2.020       .  S
O522        C523   1.269       .  A
C523        C857   1.442       .  S
O524       Cr533   1.990       .  S
O524        C532   1.258       .  A
O525        C526   1.267       .  A
C526        O527   1.267       .  A
C526        C859   1.439       .  S
O527       Cr534   2.004       .  S
O528       Cr534   1.978       .  S
O528        C529   1.262       .  A
C529        C864   1.448       .  S
O530       Cr535   2.029       .  S
O531       Cr535   1.985       .  S
O531        C532   1.258       .  A
C532        C872   1.434       .  S
Cr533       O536   1.784       .  S
Cr535       O536   1.776       .  S
O537       Cr555   2.015       .  S
O537        C545   1.267       .  A
O538       Cr555   1.987       .  S
O538        C539   1.254       .  A
C539        C873   1.447   1_556  S
O540       Cr556   2.007       .  S
O541       Cr556   1.990       .  S
O541        C542   1.262       .  A
C542        C852   1.410       .  S
O543       Cr557   1.965   1_545  S
O544       Cr557   1.974       .  S
O544        C545   1.257       .  A
C545        C849   1.443       .  S
O546       Cr555   1.984       .  S
O546        C554   1.258       .  A
O547       Cr555   2.026       .  S
C548        O549   1.263       .  A
C548        C896   1.447       .  S
O549       Cr556   1.979       .  S
O550       Cr556   1.993       .  S
O550        C551   1.263       .  A
C551        O552   1.269       .  A
C551        C855   1.440       .  S
O553       Cr557   1.991       .  S
O553        C554   1.259       .  A
C554        C854   1.434       .  S
Cr555       O558   1.779       .  S
Cr557       O558   1.784       .  S
O559       Cr577   2.019       .  S
O559        C567   1.269       .  A
O560       Cr577   1.987       .  S
O560        C561   1.254       .  A
C561        O562   1.260       .  A
C561        C843   1.448       .  S
O562       Cr578   2.008       .  S
O563       Cr578   1.987       .  S
O563        C564   1.261       .  A
C564        O565   1.248       .  A
C564        C847   1.404       .  S
O565       Cr579   1.961       .  S
O566       Cr579   1.975       .  S
O566        C567   1.257       .  A
C567        C862   1.447       .  S
O568       Cr577   1.986       .  S
O568        C576   1.258       .  A
O569       Cr577   2.027       .  S
O569        C570   1.273       .  A
C570        O571   1.262       .  A
C570        C845   1.445       .  S
O571       Cr578   1.975       .  S
O572       Cr578   1.996       .  S
O572        C573   1.264       .  A
C573        O574   1.269       .  A
C573        C884   1.442       .  S
O574       Cr579   1.999       .  S
O575       Cr579   1.989       .  S
O575        C576   1.258       .  A
C576        C853   1.434       .  S
Cr577       O580   1.778       .  S
Cr578       O580   1.773       .  S
Cr579       O580   1.784       .  S
O581       Cr599   1.974       .  S
O581        C589   1.257       .  A
O582       Cr599   1.965       .  S
O582        C583   1.250       .  A
C583        C851   1.410       .  S
O584       Cr600   1.991   1_545  S
O585        C586   1.259       .  A
C586        O587   1.254       .  A
C586        C886   1.446   1_554  S
O587       Cr601   1.987       .  S
O588       Cr601   2.015       .  S
O588        C589   1.267       .  A
C589        C841   1.443       .  S
O590       Cr599   1.991       .  S
O590        C598   1.259       .  A
O591        C592   1.269       .  A
C592        O593   1.263       .  A
C592        C838   1.440       .  S
O593       Cr600   1.993       .  S
O594       Cr600   1.979       .  S
O594        C595   1.263   1_565  A
C595        C870   1.447   1_545  S
O596       Cr601   2.026       .  S
O597       Cr601   1.984       .  S
O597        C598   1.258       .  A
C598        C839   1.434       .  S
Cr599       O602   1.784       .  S
Cr601       O602   1.779       .  S
O603       Cr621   1.975       .  S
O603        C611   1.257       .  A
O604       Cr621   1.961       .  S
O604        C605   1.248       .  A
C605        O606   1.261       .  A
C605        C848   1.404       .  S
O606       Cr622   1.986       .  S
O607       Cr622   2.008       .  S
O607        C608   1.260       .  A
C608        O609   1.254       .  A
C608        C833   1.448       .  S
O609       Cr623   1.987       .  S
O610       Cr623   2.019       .  S
O610        C611   1.269       .  A
C611        C882   1.447       .  S
O612       Cr621   1.989       .  S
O612        C620   1.258       .  A
O613       Cr621   1.999       .  S
O613        C614   1.269       .  A
C614        O615   1.264       .  A
C614        C863   1.442       .  S
O615       Cr622   1.996       .  S
O616       Cr622   1.975       .  S
O616        C617   1.262       .  A
C617        O618   1.273       .  A
C617        C836   1.445       .  S
O618       Cr623   2.027       .  S
O619       Cr623   1.986       .  S
O619        C620   1.258       .  A
C620        C840   1.434       .  S
Cr621       O624   1.784       .  S
Cr622       O624   1.773       .  S
Cr623       O624   1.778       .  S
O625       Cr643   2.017       .  S
O625        C633   1.268       .  A
O626       Cr643   1.987       .  S
O626        C627   1.254       .  A
C627        O628   1.259       .  A
C627        C842   1.446   1_556  S
O628       Cr644   2.005       .  S
O629       Cr644   1.992       .  S
O629        C630   1.262       .  A
C630        O631   1.249       .  A
C630        C825   1.410       .  S
O631       Cr645   1.964       .  S
O632       Cr645   1.974       .  S
O632        C633   1.257       .  A
C633        C829   1.444       .  S
O634       Cr643   1.985       .  S
O634        C642   1.258       .  A
O635       Cr643   2.026       .  S
O635        C636   1.272       .  A
C636        O637   1.263       .  A
C636        C856   1.447       .  S
O637       Cr644   1.979       .  S
O638       Cr644   1.993       .  S
O638        C639   1.264       .  A
C639        O640   1.269       .  A
C639        C831   1.438       .  S
O640       Cr645   1.997       .  S
O641       Cr645   1.988       .  S
O641        C642   1.257       .  A
C642        C827   1.433       .  S
Cr643       O646   1.778       .  S
Cr644       O646   1.773       .  S
Cr645       O646   1.784       .  S
O647       Cr665   2.018       .  S
O647        C655   1.269       .  A
O648       Cr665   1.976       .  S
O648        C649   1.252       .  A
C649        O650   1.261       .  A
C649        C821   1.441       .  S
O650       Cr666   2.010       .  S
O651       Cr666   1.978       .  S
O651        C652   1.258       .  A
C652        O653   1.249       .  A
C652        C819   1.401       .  S
O653       Cr667   1.964       .  S
O654       Cr667   1.973       .  S
O654        C655   1.256       .  A
C655        C834   1.445       .  S
O656       Cr665   1.983       .  S
O656        C664   1.258       .  A
O657       Cr665   2.029       .  S
O657        C658   1.273       .  A
C658        O659   1.260       .  A
C658        C823   1.442       .  S
O659       Cr666   1.968       .  S
O660       Cr666   1.998       .  S
O660        C661   1.266       .  A
C661        O662   1.269       .  A
C661        C846   1.439       .  S
O662       Cr667   1.994       .  S
O663       Cr667   1.992       .  S
O663        C664   1.259       .  A
C664        C828   1.433       .  S
Cr665       O668   1.775       .  S
Cr666       O668   1.772       .  S
Cr667       O668   1.782       .  S
O669       Cr687   1.973       .  S
O669        C677   1.256       .  A
O670       Cr687   1.964       .  S
O670        C671   1.249       .  A
C671        O672   1.258       .  A
C671        C820   1.401       .  S
O672       Cr688   1.978       .  S
O673       Cr688   2.010       .  S
O673        C674   1.261       .  A
C674        O675   1.252       .  A
C674        C814   1.441       .  S
O675       Cr689   1.976       .  S
O676       Cr689   2.018       .  S
O676        C677   1.269       .  A
C677        C844   1.445       .  S
O678       Cr687   1.992       .  S
O678        C686   1.259       .  A
O679       Cr687   1.994       .  S
O679        C680   1.269       .  A
C680        O681   1.266       .  A
C680        C835   1.439       .  S
O681       Cr688   1.998       .  S
O682       Cr688   1.968       .  S
O682        C683   1.260       .  A
C683        O684   1.273       .  A
C683        C816   1.442       .  S
O684       Cr689   2.029       .  S
O685       Cr689   1.983       .  S
O685        C686   1.258       .  A
C686        C817   1.433       .  S
Cr687       O690   1.782       .  S
Cr688       O690   1.772       .  S
Cr689       O690   1.775       .  S
O691       Cr709   1.974       .  S
O691        C699   1.257       .  A
O692       Cr709   1.964       .  S
O692        C693   1.249       .  A
C693        O694   1.262       .  A
C693        C826   1.410       .  S
O694       Cr710   1.992       .  S
O695       Cr710   2.005       .  S
O695        C696   1.259       .  A
C696        O697   1.254       .  A
C696        C850   1.446   1_554  S
O697       Cr711   1.987       .  S
O698       Cr711   2.017       .  S
O698        C699   1.268       .  A
C699        C812   1.444       .  S
O700       Cr709   1.988       .  S
O700        C708   1.257       .  A
O701       Cr709   1.997       .  S
O701        C702   1.269       .  A
C702        O703   1.264       .  A
C702        C809   1.438       .  S
O703       Cr710   1.993       .  S
O704       Cr710   1.979       .  S
O704        C705   1.263       .  A
C705        O706   1.272       .  A
C705        C837   1.447       .  S
O706       Cr711   2.026       .  S
O707       Cr711   1.985       .  S
O707        C708   1.258       .  A
C708        C818   1.433       .  S
Cr709       O712   1.784       .  S
Cr710       O712   1.773       .  S
Cr711       O712   1.778       .  S
O713       Cr731   2.014       .  S
O713        C721   1.267       .  A
O714       Cr731   1.986       .  S
O714        C715   1.254       .  A
C715        O716   1.260       .  A
C715        C811   1.446   1_556  S
O716       Cr732   2.008       .  S
O717       Cr732   1.991       .  S
O717        C718   1.262       .  A
C718        O719   1.249       .  A
C718        C805   1.410       .  S
O719       Cr733   1.964       .  S
O720       Cr733   1.974       .  S
O720        C721   1.257       .  A
C721        C866   1.444       .  S
O722       Cr731   1.983       .  S
O722        C730   1.258       .  A
O723       Cr731   2.023       .  S
O723        C724   1.272       .  A
C724        O725   1.263       .  A
C724        C832   1.445       .  S
O725       Cr732   1.979       .  S
O726       Cr732   1.993       .  S
O726        C727   1.263       .  A
C727        O728   1.269       .  A
C727        C894   1.441       .  S
O728       Cr733   1.999       .  S
O729       Cr733   1.991       .  S
O729        C730   1.259       .  A
C730        C808   1.433       .  S
Cr731       O734   1.779       .  S
Cr732       O734   1.772       .  S
Cr733       O734   1.784       .  S
O735       Cr753   1.978       .  S
O735        C743   1.256       .  A
O736       Cr753   2.015       .  S
O736        C737   1.265       .  A
C737        O738   1.256       .  A
C737        C858   1.445       .  S
O738      Cr1650   1.983   1_455  S
O739       Cr754   1.997       .  S
O739       C1636   1.261       .  A
C740       O1635   1.261   1_455  A
C740        O741   1.251       .  A
C740        C804   1.409       .  S
O741       Cr755   1.951       .  S
O742       Cr755   2.007       .  S
O742        C743   1.263       .  A
C743        C813   1.440       .  S
O744       Cr753   2.024       .  S
O744        C752   1.268       .  A
O745       Cr753   1.991       .  S
O745       C1642   1.264   1_455  A
C746       O1641   1.264       .  A
C746        O747   1.269       .  A
C746        C875   1.444       .  S
O747       Cr754   2.010       .  S
O748       Cr754   1.980       .  S
O748        C749   1.261       .  A
C749        O750   1.265       .  A
C749        C824   1.440       .  S
O750      Cr1651   2.013       .  S
O751       Cr755   1.961       .  S
O751        C752   1.257       .  A
C752        C807   1.433       .  S
Cr753       O756   1.777       .  S
Cr754      O1634   1.983       .  S
Cr754      O1652   1.768       .  S
Cr755      O1646   2.013   1_455  S
Cr755       O756   1.773       .  S
O756      Cr1650   1.768   1_455  S
O757       Cr775   2.007       .  S
O757        C765   1.263       .  A
O758       Cr775   1.951       .  S
O758        C759   1.251       .  A
C759       O1656   1.261       .  A
C759       C1699   1.409       .  S
O760       Cr776   1.997       .  S
O760       C1655   1.261   1_455  A
O761      Cr1672   1.982       .  S
O761        C762   1.256       .  A
C762        O763   1.265       .  A
C762        C877   1.445       .  S
O763       Cr777   2.015       .  S
O764       Cr777   1.978       .  S
O764        C765   1.256       .  A
C765        C822   1.440       .  S
O766       Cr775   1.961       .  S
O766        C774   1.257       .  A
O767      Cr1671   2.013   1_455  S
O767        C768   1.265       .  A
C768        O769   1.261       .  A
C768        C815   1.440       .  S
O769       Cr776   1.980       .  S
O770       Cr776   2.010       .  S
O770        C771   1.269       .  A
C771       O1668   1.264   1_455  A
C771        C860   1.444       .  S
O772       Cr777   1.991       .  S
O772       C1667   1.264       .  A
O773       Cr777   2.024       .  S
O773        C774   1.268       .  A
C774        C802   1.433       .  S
Cr775      O1663   2.013       .  S
Cr775       O778   1.773       .  S
Cr776      O1657   1.982   1_455  S
Cr776      O1674   1.768   1_455  S
Cr777       O778   1.777       .  S
O778      Cr1672   1.768       .  S
O779       Cr797   1.974       .  S
O779        C787   1.257       .  A
O780       Cr797   1.964       .  S
O780        C781   1.249       .  A
C781        O782   1.262       .  A
C781        C806   1.410       .  S
O782       Cr798   1.991       .  S
O783       Cr798   2.008       .  S
O783        C784   1.260       .  A
C784        O785   1.254       .  A
C784        C830   1.446   1_554  S
O785       Cr799   1.985       .  S
O786       Cr799   2.014       .  S
O786        C787   1.267       .  A
C787        C891   1.444       .  S
O788       Cr797   1.991       .  S
O788        C796   1.258       .  A
O789       Cr797   1.999       .  S
O789        C790   1.269       .  A
C790        O791   1.263       .  A
C790        C867   1.441       .  S
O791       Cr798   1.993       .  S
O792       Cr798   1.979       .  S
O792        C793   1.263       .  A
C793        O794   1.272       .  A
C793        C810   1.445       .  S
O794       Cr799   2.023       .  S
O795       Cr799   1.983       .  S
O795        C796   1.258       .  A
C796        C801   1.433       .  S
Cr797       O800   1.784       .  S
Cr798       O800   1.772       .  S
Cr799       O800   1.779       .  S
C801        C802   1.205       .  T
C803       C1655   1.409   1_455  S
C803        C804   1.191       .  T
C805       C1702   1.193   1_456  T
C806       C1701   1.193   1_554  T
C807        C808   1.205       .  T
C809        C810   1.211       .  T
C811        C812   1.212       .  T
C813        C814   1.209       .  T
C815        C816   1.210       .  T
C817        C818   1.205       .  T
C819        C820   1.187       .  T
C821        C822   1.209       .  T
C823        C824   1.210       .  T
C825        C826   1.193   1_556  T
C827        C828   1.205       .  T
C829        C830   1.212       .  T
C831        C832   1.211       .  T
C833        C834   1.213       .  T
C835        C836   1.211       .  T
C837        C838   1.212       .  T
C839        C840   1.205       .  T
C841        C842   1.212       .  T
C843        C844   1.213       .  T
C845        C846   1.211       .  T
C849        C850   1.212       .  T
C851        C852   1.193   1_554  T
C853        C854   1.205       .  T
C855        C856   1.212       .  T
C857        C858   1.211       .  T
C859        C860   1.210       .  T
C861        C862   1.214       .  T
C863        C864   1.213       .  T
C865        C866   1.212       .  T
C867        C868   1.212       .  T
C869        C870   1.212       .  T
C871        C872   1.205       .  T
C873        C874   1.212       .  T
C875        C876   1.210       .  T
C877        C878   1.211       .  T
C879       C1776   1.194       .  T
C880       C1775   1.194   1_455  T
C881        C882   1.214       .  T
C883        C884   1.213       .  T
C885        C886   1.212       .  T
C888       C1350   1.411       .  S
C889        C890   1.205       .  T
C891        C892   1.212       .  T
C893        C894   1.212       .  T
C895        C896   1.212       .  T
O897       Cr915   2.016       .  S
O897        C905   1.268       .  A
O898       Cr915   1.987       .  S
O898        C899   1.254       .  A
C899        O900   1.259       .  A
C899       C1340   1.446   1_556  S
O901       Cr916   1.993       .  S
C902        O903   1.249       .  A
O903       Cr917   1.964   1_455  S
O904       Cr917   1.974       .  S
O904        C905   1.257       .  A
C905       C1333   1.444       .  S
O906       Cr915   1.985       .  S
O906        C914   1.258       .  A
O907       Cr915   2.025       .  S
C908        O909   1.263       .  A
C908       C1341   1.448       .  S
O909       Cr916   1.981       .  S
O910       Cr916   1.993       .  S
O910        C911   1.263       .  A
C911        O912   1.269       .  A
C911       C1343   1.440       .  S
O913       Cr917   1.990       .  S
O913        C914   1.258       .  A
C914       C1337   1.434       .  S
Cr915       O918   1.779       .  S
Cr917       O918   1.784       .  S
O919       Cr937   2.020       .  S
O919        C927   1.269       .  A
O920       Cr937   1.986       .  S
O920        C921   1.254       .  A
C921        O922   1.261       .  A
C921       C1329   1.449       .  S
O922      Cr1386   2.012   1_545  S
O923       Cr938   1.990       .  S
O923       C1372   1.260       .  A
C924       O1371   1.260       .  A
C924        O925   1.250       .  A
C924       C1327   1.412       .  S
O925       Cr939   1.969       .  S
O926       Cr939   1.968       .  S
O926        C927   1.256       .  A
C927       C1326   1.442       .  S
O928       Cr937   1.985       .  S
O928        C936   1.258       .  A
O929       Cr937   2.029       .  S
O929       C1378   1.273       .  A
C930       O1377   1.273       .  A
C930        O931   1.262       .  A
C930       C1331   1.448       .  S
O931       Cr938   1.978       .  S
O932       Cr938   2.004       .  S
O932        C933   1.267       .  A
C933        O934   1.267       .  A
C933       C1324   1.439       .  S
O934      Cr1387   1.991       .  S
O935       Cr939   1.990       .  S
O935        C936   1.258       .  A
C936       C1338   1.434       .  S
Cr937       O940   1.776       .  S
Cr938      O1370   2.012       .  S
Cr938      O1388   1.772       .  S
Cr939      O1382   1.991   1_545  S
Cr939       O940   1.784       .  S
O940      Cr1386   1.772   1_545  S
O941       Cr959   1.974       .  S
O941        C949   1.257       .  A
O942       Cr959   1.964       .  S
O942        C943   1.249       .  A
C943       C1335   1.411       .  S
O944       Cr960   1.993       .  S
O945        C946   1.259       .  A
C946        O947   1.254       .  A
C946       C1313   1.446   1_554  S
O947       Cr961   1.987       .  S
O948       Cr961   2.016       .  S
O948        C949   1.268       .  A
C949       C1322   1.444       .  S
O950       Cr959   1.990       .  S
O950        C958   1.258       .  A
O951        C952   1.269       .  A
C952        O953   1.263       .  A
C952       C1317   1.440       .  S
O953       Cr960   1.993       .  S
O954       Cr960   1.981       .  S
O954        C955   1.263       .  A
C955       C1316   1.448       .  S
O956       Cr961   2.026       .  S
O957       Cr961   1.984       .  S
O957        C958   1.258       .  A
C958       C1319   1.434       .  S
Cr959       O962   1.784       .  S
Cr961       O962   1.779       .  S
O963       Cr981   1.968       .  S
O963        C971   1.256       .  A
O964       Cr981   1.969       .  S
O964       C1413   1.250       .  A
C965       O1412   1.250       .  A
C965        O966   1.260       .  A
C965       C1328   1.412       .  S
O966       Cr982   1.990       .  S
O967       Cr982   2.012       .  S
O967       C1416   1.261   1_545  A
C968       O1415   1.261       .  A
C968        O969   1.254       .  A
C968       C1309   1.449       .  S
O969       Cr983   1.986       .  S
O970       Cr983   2.020       .  S
O970        C971   1.269       .  A
C971       C1305   1.442       .  S
O972       Cr981   1.990       .  S
O972        C980   1.258       .  A
O973      Cr1429   1.991   1_545  S
O973        C974   1.267       .  A
C974        O975   1.267       .  A
C974       C1307   1.439       .  S
O975       Cr982   2.004       .  S
O976       Cr982   1.978       .  S
O976        C977   1.262       .  A
C977       O1426   1.273   1_545  A
C977       C1312   1.448       .  S
O978       Cr983   2.029       .  S
O978       C1425   1.273       .  A
O979       Cr983   1.985       .  S
O979        C980   1.258       .  A
C980       C1320   1.434       .  S
Cr981      O1421   1.991       .  S
Cr981       O984   1.784       .  S
Cr982      O1432   1.772   1_545  S
Cr983       O984   1.776       .  S
O984      Cr1430   1.772       .  S
O985      Cr1003   2.015       .  S
O985        C993   1.267       .  A
O986      Cr1003   1.987       .  S
O986        C987   1.254       .  A
C987       O1436   1.260       .  A
C987       C1321   1.447   1_556  S
O988      Cr1004   2.007       .  S
O988       C1435   1.259   1_545  A
O989      Cr1004   1.990       .  S
O989        C990   1.262       .  A
C990       O1439   1.250       .  A
C990       C1300   1.410       .  S
O991      Cr1005   1.965       .  S
O991       C1438   1.250       .  A
O992      Cr1005   1.974       .  S
O992        C993   1.257       .  A
C993       C1297   1.443       .  S
O994      Cr1003   1.984       .  S
O994       C1002   1.258       .  A
O995      Cr1003   2.026       .  S
O995       C1444   1.272       .  A
C996       O1443   1.272   1_545  A
C996        O997   1.263       .  A
C996       C1344   1.447       .  S
O997      Cr1004   1.979       .  S
O998      Cr1004   1.993       .  S
O998        C999   1.263       .  A
C999       O1000   1.269       .  A
C999       C1303   1.440       .  S
O1000     Cr1453   1.998   1_545  S
O1001     Cr1005   1.991       .  S
O1001      C1002   1.259       .  A
C1002      C1302   1.434       .  S
Cr1003     O1006   1.779       .  S
Cr1004     O1454   1.773   1_545  S
Cr1005     O1448   1.998       .  S
Cr1005     O1006   1.784       .  S
O1006     Cr1452   1.773       .  S
O1007     Cr1025   2.019       .  S
O1007      C1015   1.269       .  A
O1008     Cr1025   1.987       .  S
O1008      C1009   1.254       .  A
C1009      O1010   1.260       .  A
C1009      C1291   1.448       .  S
O1010     Cr1026   2.008       .  S
O1011     Cr1026   1.987       .  S
O1011      C1012   1.261       .  A
C1012      O1013   1.248       .  A
C1012      C1295   1.404       .  S
O1013     Cr1027   1.961       .  S
O1014     Cr1027   1.975       .  S
O1014      C1015   1.257       .  A
C1015      C1310   1.447       .  S
O1016     Cr1025   1.986       .  S
O1016      C1024   1.258       .  A
O1017     Cr1025   2.027       .  S
O1017      C1018   1.273       .  A
C1018      O1019   1.262       .  A
C1018      C1293   1.445       .  S
O1019     Cr1026   1.975       .  S
O1020     Cr1026   1.996       .  S
O1020      C1021   1.264       .  A
C1021      O1022   1.269       .  A
C1021      C1332   1.442       .  S
O1022     Cr1027   1.999       .  S
O1023     Cr1027   1.989       .  S
O1023      C1024   1.258       .  A
C1024      C1301   1.434       .  S
Cr1025     O1028   1.778       .  S
Cr1026     O1028   1.773       .  S
Cr1027     O1028   1.784       .  S
O1029     Cr1047   1.974       .  S
O1029      C1037   1.257       .  A
O1030     Cr1047   1.965       .  S
O1030      C1031   1.250       .  A
C1031      O1480   1.262       .  A
C1031      C1299   1.410       .  S
O1032     Cr1048   1.991       .  S
O1032      C1479   1.262       .  A
O1033     Cr1496   2.007   1_545  S
O1033      C1034   1.259       .  A
C1034      O1035   1.254       .  A
C1034      C1334   1.446   1_554  S
O1035     Cr1049   1.987       .  S
O1036     Cr1049   2.015       .  S
O1036      C1037   1.267       .  A
C1037      C1289   1.443       .  S
O1038     Cr1047   1.991       .  S
O1038      C1046   1.259       .  A
O1039     Cr1495   1.998       .  S
O1039      C1040   1.269       .  A
C1040      O1041   1.263       .  A
C1040      C1286   1.440       .  S
O1041     Cr1048   1.993       .  S
O1042     Cr1048   1.979       .  S
O1042      C1043   1.263       .  A
C1043      O1492   1.272       .  A
C1043      C1318   1.447       .  S
O1044     Cr1049   2.026       .  S
O1044      C1491   1.272       .  A
O1045     Cr1049   1.984       .  S
O1045      C1046   1.258       .  A
C1046      C1287   1.434       .  S
Cr1047     O1487   1.998   1_545  S
Cr1047     O1050   1.784       .  S
Cr1048     O1481   2.007       .  S
Cr1048     O1498   1.773       .  S
Cr1049     O1050   1.779       .  S
O1050     Cr1496   1.773   1_545  S
O1051     Cr1069   1.975       .  S
O1051      C1059   1.257       .  A
O1052     Cr1069   1.961       .  S
O1052      C1053   1.248       .  A
C1053      O1054   1.261       .  A
C1053      C1296   1.404       .  S
O1054     Cr1070   1.986       .  S
O1055     Cr1070   2.008       .  S
O1055      C1056   1.260       .  A
C1056      O1057   1.254       .  A
C1056      C1281   1.448       .  S
O1057     Cr1071   1.987       .  S
O1058     Cr1071   2.019       .  S
O1058      C1059   1.269       .  A
C1059      C1330   1.447       .  S
O1060     Cr1069   1.989       .  S
O1060      C1068   1.258       .  A
O1061     Cr1069   1.999       .  S
O1061      C1062   1.269       .  A
C1062      O1063   1.264       .  A
C1062      C1311   1.442       .  S
O1063     Cr1070   1.996       .  S
O1064     Cr1070   1.975       .  S
O1064      C1065   1.262       .  A
C1065      O1066   1.273       .  A
C1065      C1284   1.445       .  S
O1066     Cr1071   2.027       .  S
O1067     Cr1071   1.986       .  S
O1067      C1068   1.258       .  A
C1068      C1288   1.434       .  S
Cr1069     O1072   1.784       .  S
Cr1070     O1072   1.773       .  S
Cr1071     O1072   1.778       .  S
O1073     Cr1091   2.017       .  S
O1073      C1081   1.268       .  A
O1074     Cr1091   1.987       .  S
O1074      C1075   1.254       .  A
C1075      O1076   1.259       .  A
C1075      C1290   1.446   1_556  S
O1076     Cr1092   2.005       .  S
O1077     Cr1092   1.992       .  S
O1077      C1078   1.262       .  A
C1078      O1079   1.249       .  A
C1078      C1273   1.410       .  S
O1079     Cr1093   1.964       .  S
O1080     Cr1093   1.974       .  S
O1080      C1081   1.257       .  A
C1081      C1277   1.444       .  S
O1082     Cr1091   1.985       .  S
O1082      C1090   1.258       .  A
O1083     Cr1091   2.026       .  S
O1083      C1084   1.272       .  A
C1084      O1085   1.263       .  A
C1084      C1304   1.447       .  S
O1085     Cr1092   1.979       .  S
O1086     Cr1092   1.993       .  S
O1086      C1087   1.264       .  A
C1087      O1088   1.269       .  A
C1087      C1279   1.438       .  S
O1088     Cr1093   1.997       .  S
O1089     Cr1093   1.988       .  S
O1089      C1090   1.257       .  A
C1090      C1275   1.433       .  S
Cr1091     O1094   1.778       .  S
Cr1092     O1094   1.773       .  S
Cr1093     O1094   1.784       .  S
O1095     Cr1113   2.018       .  S
O1095      C1103   1.269       .  A
O1096     Cr1113   1.976       .  S
O1096      C1097   1.252       .  A
C1097      O1098   1.261       .  A
C1097      C1269   1.441       .  S
O1098     Cr1114   2.010       .  S
O1099     Cr1114   1.978       .  S
O1099      C1100   1.258       .  A
C1100      O1101   1.249       .  A
C1100      C1267   1.401       .  S
O1101     Cr1115   1.964       .  S
O1102     Cr1115   1.973       .  S
O1102      C1103   1.256       .  A
C1103      C1282   1.445       .  S
O1104     Cr1113   1.983       .  S
O1104      C1112   1.258       .  A
O1105     Cr1113   2.029       .  S
O1105      C1106   1.273       .  A
C1106      O1107   1.260       .  A
C1106      C1271   1.442       .  S
O1107     Cr1114   1.968       .  S
O1108     Cr1114   1.998       .  S
O1108      C1109   1.266       .  A
C1109      O1110   1.269       .  A
C1109      C1294   1.439       .  S
O1110     Cr1115   1.994       .  S
O1111     Cr1115   1.992       .  S
O1111      C1112   1.259       .  A
C1112      C1276   1.433       .  S
Cr1113     O1116   1.775       .  S
Cr1114     O1116   1.772       .  S
Cr1115     O1116   1.782       .  S
O1117     Cr1135   1.973       .  S
O1117      C1125   1.256       .  A
O1118     Cr1135   1.964       .  S
O1118      C1119   1.249       .  A
C1119      O1120   1.258       .  A
C1119      C1268   1.401       .  S
O1120     Cr1136   1.978       .  S
O1121     Cr1136   2.010       .  S
O1121      C1122   1.261       .  A
C1122      O1123   1.252       .  A
C1122      C1262   1.441       .  S
O1123     Cr1137   1.976       .  S
O1124     Cr1137   2.018       .  S
O1124      C1125   1.269       .  A
C1125      C1292   1.445       .  S
O1126     Cr1135   1.992       .  S
O1126      C1134   1.259       .  A
O1127     Cr1135   1.994       .  S
O1127      C1128   1.269       .  A
C1128      O1129   1.266       .  A
C1128      C1283   1.439       .  S
O1129     Cr1136   1.998       .  S
O1130     Cr1136   1.968       .  S
O1130      C1131   1.260       .  A
C1131      O1132   1.273       .  A
C1131      C1264   1.442       .  S
O1132     Cr1137   2.029       .  S
O1133     Cr1137   1.983       .  S
O1133      C1134   1.258       .  A
C1134      C1265   1.433       .  S
Cr1135     O1138   1.782       .  S
Cr1136     O1138   1.772       .  S
Cr1137     O1138   1.775       .  S
O1139     Cr1157   1.974       .  S
O1139      C1147   1.257       .  A
O1140     Cr1157   1.964       .  S
O1140      C1141   1.249       .  A
C1141      O1142   1.262       .  A
C1141      C1274   1.410       .  S
O1142     Cr1158   1.992       .  S
O1143     Cr1158   2.005       .  S
O1143      C1144   1.259       .  A
C1144      O1145   1.254       .  A
C1144      C1298   1.446   1_554  S
O1145     Cr1159   1.987       .  S
O1146     Cr1159   2.017       .  S
O1146      C1147   1.268       .  A
C1147      C1260   1.444       .  S
O1148     Cr1157   1.988       .  S
O1148      C1156   1.257       .  A
O1149     Cr1157   1.997       .  S
O1149      C1150   1.269       .  A
C1150      O1151   1.264       .  A
C1150      C1257   1.438       .  S
O1151     Cr1158   1.993       .  S
O1152     Cr1158   1.979       .  S
O1152      C1153   1.263       .  A
C1153      O1154   1.272       .  A
C1153      C1285   1.447       .  S
O1154     Cr1159   2.026       .  S
O1155     Cr1159   1.985       .  S
O1155      C1156   1.258       .  A
C1156      C1266   1.433       .  S
Cr1157     O1160   1.784       .  S
Cr1158     O1160   1.773       .  S
Cr1159     O1160   1.778       .  S
O1161     Cr1179   2.014       .  S
O1161      C1169   1.267       .  A
O1162     Cr1179   1.986       .  S
O1162      C1163   1.254       .  A
C1163      O1164   1.260       .  A
C1163      C1259   1.446   1_556  S
O1164     Cr1180   2.008       .  S
O1165     Cr1180   1.991       .  S
O1165      C1166   1.262       .  A
C1166      O1167   1.249       .  A
C1166      C1253   1.410       .  S
O1167     Cr1181   1.964       .  S
O1168     Cr1181   1.974       .  S
O1168      C1169   1.257       .  A
C1169      C1314   1.444       .  S
O1170     Cr1179   1.983       .  S
O1170      C1178   1.258       .  A
O1171     Cr1179   2.023       .  S
O1171      C1172   1.272       .  A
C1172      O1173   1.263       .  A
C1172      C1280   1.445       .  S
O1173     Cr1180   1.979       .  S
O1174     Cr1180   1.993       .  S
O1174      C1175   1.263       .  A
C1175      O1176   1.269       .  A
C1175      C1342   1.441       .  S
O1176     Cr1181   1.999       .  S
O1177     Cr1181   1.991       .  S
O1177      C1178   1.259       .  A
C1178      C1256   1.433       .  S
Cr1179     O1182   1.779       .  S
Cr1180     O1182   1.772       .  S
Cr1181     O1182   1.784       .  S
O1183     Cr1201   1.978       .  S
O1183      C1191   1.256       .  A
O1184     Cr1201   2.015       .  S
O1184      C1185   1.265       .  A
C1185      O1186   1.256       .  A
C1185      C1306   1.445       .  S
O1187     Cr1202   1.997       .  S
C1188      O1189   1.251       .  A
C1188      C1252   1.409       .  S
O1189     Cr1203   1.951       .  S
O1190     Cr1203   2.007       .  S
O1190      C1191   1.263       .  A
C1191      C1261   1.440       .  S
O1192     Cr1201   2.024       .  S
O1192      C1200   1.268       .  A
O1193     Cr1201   1.991       .  S
C1194      O1195   1.269       .  A
C1194      C1323   1.444       .  S
O1195     Cr1202   2.010       .  S
O1196     Cr1202   1.980       .  S
O1196      C1197   1.261       .  A
C1197      O1198   1.265       .  A
C1197      C1272   1.440       .  S
O1199     Cr1203   1.961       .  S
O1199      C1200   1.257       .  A
C1200      C1255   1.433       .  S
Cr1201     O1204   1.777       .  S
Cr1203     O1204   1.773       .  S
O1205     Cr1223   2.007       .  S
O1205      C1213   1.263       .  A
O1206     Cr1223   1.951       .  S
O1206      C1207   1.251       .  A
O1208     Cr1224   1.997       .  S
O1209      C1210   1.256       .  A
C1210      O1211   1.265       .  A
C1210      C1325   1.445       .  S
O1211     Cr1225   2.015       .  S
O1212     Cr1225   1.978       .  S
O1212      C1213   1.256       .  A
C1213      C1270   1.440       .  S
O1214     Cr1223   1.961       .  S
O1214      C1222   1.257       .  A
O1215      C1216   1.265       .  A
C1216      O1217   1.261       .  A
C1216      C1263   1.440       .  S
O1217     Cr1224   1.980       .  S
O1218     Cr1224   2.010       .  S
O1218      C1219   1.269       .  A
C1219      C1308   1.444       .  S
O1220     Cr1225   1.991       .  S
O1221     Cr1225   2.024       .  S
O1221      C1222   1.268       .  A
C1222      C1250   1.433       .  S
Cr1223     O1226   1.773       .  S
Cr1225     O1226   1.777       .  S
O1227     Cr1245   1.974       .  S
O1227      C1235   1.257       .  A
O1228     Cr1245   1.964       .  S
O1228      C1229   1.249       .  A
C1229      O1230   1.262       .  A
C1229      C1254   1.410       .  S
O1230     Cr1246   1.991       .  S
O1231     Cr1246   2.008       .  S
O1231      C1232   1.260       .  A
C1232      O1233   1.254       .  A
C1232      C1278   1.446   1_554  S
O1233     Cr1247   1.985       .  S
O1234     Cr1247   2.014       .  S
O1234      C1235   1.267       .  A
C1235      C1339   1.444       .  S
O1236     Cr1245   1.991       .  S
O1236      C1244   1.258       .  A
O1237     Cr1245   1.999       .  S
O1237      C1238   1.269       .  A
C1238      O1239   1.263       .  A
C1238      C1315   1.441       .  S
O1239     Cr1246   1.993       .  S
O1240     Cr1246   1.979       .  S
O1240      C1241   1.263       .  A
C1241      O1242   1.272       .  A
C1241      C1258   1.445       .  S
O1242     Cr1247   2.023       .  S
O1243     Cr1247   1.983       .  S
O1243      C1244   1.258       .  A
C1244      C1249   1.433       .  S
Cr1245     O1248   1.784       .  S
Cr1246     O1248   1.772       .  S
Cr1247     O1248   1.779       .  S
C1249      C1250   1.205       .  T
C1251      C1252   1.191       .  T
C1255      C1256   1.205       .  T
C1257      C1258   1.211       .  T
C1259      C1260   1.212       .  T
C1261      C1262   1.209       .  T
C1263      C1264   1.210       .  T
C1265      C1266   1.205       .  T
C1267      C1268   1.187       .  T
C1269      C1270   1.209       .  T
C1271      C1272   1.210       .  T
C1273      C1274   1.193   1_556  T
C1275      C1276   1.205       .  T
C1277      C1278   1.212       .  T
C1279      C1280   1.211       .  T
C1281      C1282   1.213       .  T
C1283      C1284   1.211       .  T
C1285      C1286   1.212       .  T
C1287      C1288   1.205       .  T
C1289      C1290   1.212       .  T
C1291      C1292   1.213       .  T
C1293      C1294   1.211       .  T
C1295      C1744   1.190       .  T
C1296      C1743   1.190   1_545  T
C1297      C1298   1.212       .  T
C1299      C1300   1.193   1_554  T
C1301      C1302   1.205       .  T
C1303      C1304   1.212       .  T
C1305      C1306   1.211       .  T
C1307      C1308   1.210       .  T
C1309      C1310   1.214       .  T
C1311      C1312   1.213       .  T
C1313      C1314   1.212       .  T
C1315      C1316   1.212       .  T
C1317      C1318   1.212       .  T
C1319      C1320   1.205       .  T
C1321      C1322   1.212       .  T
C1323      C1324   1.210       .  T
C1325      C1326   1.211       .  T
C1329      C1330   1.214       .  T
C1331      C1332   1.213       .  T
C1333      C1334   1.212       .  T
C1335      C1784   1.194   1_554  T
C1336      C1783   1.194   1_546  T
C1337      C1338   1.205       .  T
C1339      C1340   1.212       .  T
C1341      C1342   1.212       .  T
C1343      C1344   1.212       .  T
O1345     Cr1363   2.016       .  S
O1345      C1353   1.268       .  A
O1346     Cr1363   1.987       .  S
O1346      C1347   1.254       .  A
C1347      O1348   1.259       .  A
C1347      C1788   1.446   1_556  S
O1349     Cr1364   1.993       .  S
C1350      O1351   1.249       .  A
O1351     Cr1365   1.964   1_455  S
O1352     Cr1365   1.974       .  S
O1352      C1353   1.257       .  A
C1353      C1781   1.444       .  S
O1354     Cr1363   1.985       .  S
O1354      C1362   1.258       .  A
O1355     Cr1363   2.025       .  S
C1356      O1357   1.263       .  A
C1356      C1789   1.448       .  S
O1357     Cr1364   1.981       .  S
O1358     Cr1364   1.993       .  S
O1358      C1359   1.263       .  A
C1359      O1360   1.269       .  A
C1359      C1791   1.440       .  S
O1361     Cr1365   1.990       .  S
O1361      C1362   1.258       .  A
C1362      C1785   1.434       .  S
Cr1363     O1366   1.779       .  S
Cr1365     O1366   1.784       .  S
O1367     Cr1385   2.020       .  S
O1367      C1375   1.269       .  A
O1368     Cr1385   1.986       .  S
O1368      C1369   1.254       .  A
C1369      O1370   1.261       .  A
C1369      C1777   1.449       .  S
O1371     Cr1386   1.990   1_545  S
C1372      O1373   1.250       .  A
C1372      C1775   1.412       .  S
O1373     Cr1387   1.969       .  S
O1374     Cr1387   1.968       .  S
O1374      C1375   1.256       .  A
C1375      C1774   1.442       .  S
O1376     Cr1385   1.985       .  S
O1376      C1384   1.258       .  A
O1377     Cr1385   2.029       .  S
C1378      O1379   1.262   1_545  A
C1378      C1779   1.448   1_545  S
O1379     Cr1386   1.978       .  S
O1380     Cr1386   2.004       .  S
O1380      C1381   1.267       .  A
C1381      O1382   1.267       .  A
C1381      C1772   1.439       .  S
O1383     Cr1387   1.990       .  S
O1383      C1384   1.258       .  A
C1384      C1786   1.434       .  S
Cr1385     O1388   1.776       .  S
Cr1387     O1388   1.784       .  S
O1389     Cr1407   1.974       .  S
O1389      C1397   1.257       .  A
O1390     Cr1407   1.964       .  S
O1390      C1391   1.249       .  A
C1391      C1783   1.411       .  S
O1392     Cr1408   1.993       .  S
O1393      C1394   1.259       .  A
C1394      O1395   1.254       .  A
C1394      C1761   1.446   1_554  S
O1395     Cr1409   1.987       .  S
O1396     Cr1409   2.016       .  S
O1396      C1397   1.268       .  A
C1397      C1770   1.444       .  S
O1398     Cr1407   1.990       .  S
O1398      C1406   1.258       .  A
O1399      C1400   1.269       .  A
C1400      O1401   1.263       .  A
C1400      C1765   1.440       .  S
O1401     Cr1408   1.993       .  S
O1402     Cr1408   1.981       .  S
O1402      C1403   1.263       .  A
C1403      C1764   1.448       .  S
O1404     Cr1409   2.026       .  S
O1405     Cr1409   1.984       .  S
O1405      C1406   1.258       .  A
C1406      C1767   1.434       .  S
Cr1407     O1410   1.784       .  S
Cr1409     O1410   1.779       .  S
O1411     Cr1429   1.968       .  S
O1411      C1419   1.256       .  A
O1412     Cr1429   1.969   1_545  S
C1413      O1414   1.260       .  A
C1413      C1776   1.412       .  S
O1414     Cr1430   1.990       .  S
O1415     Cr1430   2.012       .  S
C1416      O1417   1.254       .  A
C1416      C1757   1.449       .  S
O1417     Cr1431   1.986       .  S
O1418     Cr1431   2.020       .  S
O1418      C1419   1.269       .  A
C1419      C1753   1.442       .  S
O1420     Cr1429   1.990       .  S
O1420      C1428   1.258       .  A
O1421      C1422   1.267       .  A
C1422      O1423   1.267       .  A
C1422      C1755   1.439       .  S
O1423     Cr1430   2.004       .  S
O1424     Cr1430   1.978       .  S
O1424      C1425   1.262       .  A
C1425      C1760   1.448       .  S
O1426     Cr1431   2.029       .  S
O1427     Cr1431   1.985       .  S
O1427      C1428   1.258       .  A
C1428      C1768   1.434       .  S
Cr1429     O1432   1.784       .  S
Cr1431     O1432   1.776       .  S
O1433     Cr1451   2.015       .  S
O1433      C1441   1.267       .  A
O1434     Cr1451   1.987       .  S
O1434      C1435   1.254       .  A
C1435      C1769   1.447   1_556  S
O1436     Cr1452   2.007       .  S
O1437     Cr1452   1.990       .  S
O1437      C1438   1.262       .  A
C1438      C1748   1.410       .  S
O1439     Cr1453   1.965   1_545  S
O1440     Cr1453   1.974       .  S
O1440      C1441   1.257       .  A
C1441      C1745   1.443       .  S
O1442     Cr1451   1.984       .  S
O1442      C1450   1.258       .  A
O1443     Cr1451   2.026       .  S
C1444      O1445   1.263       .  A
C1444      C1792   1.447       .  S
O1445     Cr1452   1.979       .  S
O1446     Cr1452   1.993       .  S
O1446      C1447   1.263       .  A
C1447      O1448   1.269       .  A
C1447      C1751   1.440       .  S
O1449     Cr1453   1.991       .  S
O1449      C1450   1.259       .  A
C1450      C1750   1.434       .  S
Cr1451     O1454   1.779       .  S
Cr1453     O1454   1.784       .  S
O1455     Cr1473   2.019       .  S
O1455      C1463   1.269       .  A
O1456     Cr1473   1.987       .  S
O1456      C1457   1.254       .  A
C1457      O1458   1.260       .  A
C1457      C1739   1.448       .  S
O1458     Cr1474   2.008       .  S
O1459     Cr1474   1.987       .  S
O1459      C1460   1.261       .  A
C1460      O1461   1.248       .  A
C1460      C1743   1.404       .  S
O1461     Cr1475   1.961       .  S
O1462     Cr1475   1.975       .  S
O1462      C1463   1.257       .  A
C1463      C1758   1.447       .  S
O1464     Cr1473   1.986       .  S
O1464      C1472   1.258       .  A
O1465     Cr1473   2.027       .  S
O1465      C1466   1.273       .  A
C1466      O1467   1.262       .  A
C1466      C1741   1.445       .  S
O1467     Cr1474   1.975       .  S
O1468     Cr1474   1.996       .  S
O1468      C1469   1.264       .  A
C1469      O1470   1.269       .  A
C1469      C1780   1.442       .  S
O1470     Cr1475   1.999       .  S
O1471     Cr1475   1.989       .  S
O1471      C1472   1.258       .  A
C1472      C1749   1.434       .  S
Cr1473     O1476   1.778       .  S
Cr1474     O1476   1.773       .  S
Cr1475     O1476   1.784       .  S
O1477     Cr1495   1.974       .  S
O1477      C1485   1.257       .  A
O1478     Cr1495   1.965       .  S
O1478      C1479   1.250       .  A
C1479      C1747   1.410       .  S
O1480     Cr1496   1.991   1_545  S
O1481      C1482   1.259       .  A
C1482      O1483   1.254       .  A
C1482      C1782   1.446   1_554  S
O1483     Cr1497   1.987       .  S
O1484     Cr1497   2.015       .  S
O1484      C1485   1.267       .  A
C1485      C1737   1.443       .  S
O1486     Cr1495   1.991       .  S
O1486      C1494   1.259       .  A
O1487      C1488   1.269       .  A
C1488      O1489   1.263       .  A
C1488      C1734   1.440       .  S
O1489     Cr1496   1.993       .  S
O1490     Cr1496   1.979       .  S
O1490      C1491   1.263   1_565  A
C1491      C1766   1.447   1_545  S
O1492     Cr1497   2.026       .  S
O1493     Cr1497   1.984       .  S
O1493      C1494   1.258       .  A
C1494      C1735   1.434       .  S
Cr1495     O1498   1.784       .  S
Cr1497     O1498   1.779       .  S
O1499     Cr1517   1.975       .  S
O1499      C1507   1.257       .  A
O1500     Cr1517   1.961       .  S
O1500      C1501   1.248       .  A
C1501      O1502   1.261       .  A
C1501      C1744   1.404       .  S
O1502     Cr1518   1.986       .  S
O1503     Cr1518   2.008       .  S
O1503      C1504   1.260       .  A
C1504      O1505   1.254       .  A
C1504      C1729   1.448       .  S
O1505     Cr1519   1.987       .  S
O1506     Cr1519   2.019       .  S
O1506      C1507   1.269       .  A
C1507      C1778   1.447       .  S
O1508     Cr1517   1.989       .  S
O1508      C1516   1.258       .  A
O1509     Cr1517   1.999       .  S
O1509      C1510   1.269       .  A
C1510      O1511   1.264       .  A
C1510      C1759   1.442       .  S
O1511     Cr1518   1.996       .  S
O1512     Cr1518   1.975       .  S
O1512      C1513   1.262       .  A
C1513      O1514   1.273       .  A
C1513      C1732   1.445       .  S
O1514     Cr1519   2.027       .  S
O1515     Cr1519   1.986       .  S
O1515      C1516   1.258       .  A
C1516      C1736   1.434       .  S
Cr1517     O1520   1.784       .  S
Cr1518     O1520   1.773       .  S
Cr1519     O1520   1.778       .  S
O1521     Cr1539   2.017       .  S
O1521      C1529   1.268       .  A
O1522     Cr1539   1.987       .  S
O1522      C1523   1.254       .  A
C1523      O1524   1.259       .  A
C1523      C1738   1.446   1_556  S
O1524     Cr1540   2.005       .  S
O1525     Cr1540   1.992       .  S
O1525      C1526   1.262       .  A
C1526      O1527   1.249       .  A
C1526      C1721   1.410       .  S
O1527     Cr1541   1.964       .  S
O1528     Cr1541   1.974       .  S
O1528      C1529   1.257       .  A
C1529      C1725   1.444       .  S
O1530     Cr1539   1.985       .  S
O1530      C1538   1.258       .  A
O1531     Cr1539   2.026       .  S
O1531      C1532   1.272       .  A
C1532      O1533   1.263       .  A
C1532      C1752   1.447       .  S
O1533     Cr1540   1.979       .  S
O1534     Cr1540   1.993       .  S
O1534      C1535   1.264       .  A
C1535      O1536   1.269       .  A
C1535      C1727   1.438       .  S
O1536     Cr1541   1.997       .  S
O1537     Cr1541   1.988       .  S
O1537      C1538   1.257       .  A
C1538      C1723   1.433       .  S
Cr1539     O1542   1.778       .  S
Cr1540     O1542   1.773       .  S
Cr1541     O1542   1.784       .  S
O1543     Cr1561   2.018       .  S
O1543      C1551   1.269       .  A
O1544     Cr1561   1.976       .  S
O1544      C1545   1.252       .  A
C1545      O1546   1.261       .  A
C1545      C1717   1.441       .  S
O1546     Cr1562   2.010       .  S
O1547     Cr1562   1.978       .  S
O1547      C1548   1.258       .  A
C1548      O1549   1.249       .  A
C1548      C1715   1.401       .  S
O1549     Cr1563   1.964       .  S
O1550     Cr1563   1.973       .  S
O1550      C1551   1.256       .  A
C1551      C1730   1.445       .  S
O1552     Cr1561   1.983       .  S
O1552      C1560   1.258       .  A
O1553     Cr1561   2.029       .  S
O1553      C1554   1.273       .  A
C1554      O1555   1.260       .  A
C1554      C1719   1.442       .  S
O1555     Cr1562   1.968       .  S
O1556     Cr1562   1.998       .  S
O1556      C1557   1.266       .  A
C1557      O1558   1.269       .  A
C1557      C1742   1.439       .  S
O1558     Cr1563   1.994       .  S
O1559     Cr1563   1.992       .  S
O1559      C1560   1.259       .  A
C1560      C1724   1.433       .  S
Cr1561     O1564   1.775       .  S
Cr1562     O1564   1.772       .  S
Cr1563     O1564   1.782       .  S
O1565     Cr1583   1.973       .  S
O1565      C1573   1.256       .  A
O1566     Cr1583   1.964       .  S
O1566      C1567   1.249       .  A
C1567      O1568   1.258       .  A
C1567      C1716   1.401       .  S
O1568     Cr1584   1.978       .  S
O1569     Cr1584   2.010       .  S
O1569      C1570   1.261       .  A
C1570      O1571   1.252       .  A
C1570      C1710   1.441       .  S
O1571     Cr1585   1.976       .  S
O1572     Cr1585   2.018       .  S
O1572      C1573   1.269       .  A
C1573      C1740   1.445       .  S
O1574     Cr1583   1.992       .  S
O1574      C1582   1.259       .  A
O1575     Cr1583   1.994       .  S
O1575      C1576   1.269       .  A
C1576      O1577   1.266       .  A
C1576      C1731   1.439       .  S
O1577     Cr1584   1.998       .  S
O1578     Cr1584   1.968       .  S
O1578      C1579   1.260       .  A
C1579      O1580   1.273       .  A
C1579      C1712   1.442       .  S
O1580     Cr1585   2.029       .  S
O1581     Cr1585   1.983       .  S
O1581      C1582   1.258       .  A
C1582      C1713   1.433       .  S
Cr1583     O1586   1.782       .  S
Cr1584     O1586   1.772       .  S
Cr1585     O1586   1.775       .  S
O1587     Cr1605   1.974       .  S
O1587      C1595   1.257       .  A
O1588     Cr1605   1.964       .  S
O1588      C1589   1.249       .  A
C1589      O1590   1.262       .  A
C1589      C1722   1.410       .  S
O1590     Cr1606   1.992       .  S
O1591     Cr1606   2.005       .  S
O1591      C1592   1.259       .  A
C1592      O1593   1.254       .  A
C1592      C1746   1.446   1_554  S
O1593     Cr1607   1.987       .  S
O1594     Cr1607   2.017       .  S
O1594      C1595   1.268       .  A
C1595      C1708   1.444       .  S
O1596     Cr1605   1.988       .  S
O1596      C1604   1.257       .  A
O1597     Cr1605   1.997       .  S
O1597      C1598   1.269       .  A
C1598      O1599   1.264       .  A
C1598      C1705   1.438       .  S
O1599     Cr1606   1.993       .  S
O1600     Cr1606   1.979       .  S
O1600      C1601   1.263       .  A
C1601      O1602   1.272       .  A
C1601      C1733   1.447       .  S
O1602     Cr1607   2.026       .  S
O1603     Cr1607   1.985       .  S
O1603      C1604   1.258       .  A
C1604      C1714   1.433       .  S
Cr1605     O1608   1.784       .  S
Cr1606     O1608   1.773       .  S
Cr1607     O1608   1.778       .  S
O1609     Cr1627   2.014       .  S
O1609      C1617   1.267       .  A
O1610     Cr1627   1.986       .  S
O1610      C1611   1.254       .  A
C1611      O1612   1.260       .  A
C1611      C1707   1.446   1_556  S
O1612     Cr1628   2.008       .  S
O1613     Cr1628   1.991       .  S
O1613      C1614   1.262       .  A
C1614      O1615   1.249       .  A
C1614      C1701   1.410       .  S
O1615     Cr1629   1.964       .  S
O1616     Cr1629   1.974       .  S
O1616      C1617   1.257       .  A
C1617      C1762   1.444       .  S
O1618     Cr1627   1.983       .  S
O1618      C1626   1.258       .  A
O1619     Cr1627   2.023       .  S
O1619      C1620   1.272       .  A
C1620      O1621   1.263       .  A
C1620      C1728   1.445       .  S
O1621     Cr1628   1.979       .  S
O1622     Cr1628   1.993       .  S
O1622      C1623   1.263       .  A
C1623      O1624   1.269       .  A
C1623      C1790   1.441       .  S
O1624     Cr1629   1.999       .  S
O1625     Cr1629   1.991       .  S
O1625      C1626   1.259       .  A
C1626      C1704   1.433       .  S
Cr1627     O1630   1.779       .  S
Cr1628     O1630   1.772       .  S
Cr1629     O1630   1.784       .  S
O1631     Cr1649   1.978       .  S
O1631      C1639   1.256       .  A
O1632     Cr1649   2.015       .  S
O1632      C1633   1.265       .  A
C1633      O1634   1.256       .  A
C1633      C1754   1.445       .  S
O1635     Cr1650   1.997       .  S
C1636      O1637   1.251       .  A
C1636      C1700   1.409       .  S
O1637     Cr1651   1.951       .  S
O1638     Cr1651   2.007       .  S
O1638      C1639   1.263       .  A
C1639      C1709   1.440       .  S
O1640     Cr1649   2.024       .  S
O1640      C1648   1.268       .  A
O1641     Cr1649   1.991       .  S
C1642      O1643   1.269       .  A
C1642      C1771   1.444       .  S
O1643     Cr1650   2.010       .  S
O1644     Cr1650   1.980       .  S
O1644      C1645   1.261       .  A
C1645      O1646   1.265       .  A
C1645      C1720   1.440       .  S
O1647     Cr1651   1.961       .  S
O1647      C1648   1.257       .  A
C1648      C1703   1.433       .  S
Cr1649     O1652   1.777       .  S
Cr1651     O1652   1.773       .  S
O1653     Cr1671   2.007       .  S
O1653      C1661   1.263       .  A
O1654     Cr1671   1.951       .  S
O1654      C1655   1.251       .  A
O1656     Cr1672   1.997       .  S
O1657      C1658   1.256       .  A
C1658      O1659   1.265       .  A
C1658      C1773   1.445       .  S
O1659     Cr1673   2.015       .  S
O1660     Cr1673   1.978       .  S
O1660      C1661   1.256       .  A
C1661      C1718   1.440       .  S
O1662     Cr1671   1.961       .  S
O1662      C1670   1.257       .  A
O1663      C1664   1.265       .  A
C1664      O1665   1.261       .  A
C1664      C1711   1.440       .  S
O1665     Cr1672   1.980       .  S
O1666     Cr1672   2.010       .  S
O1666      C1667   1.269       .  A
C1667      C1756   1.444       .  S
O1668     Cr1673   1.991       .  S
O1669     Cr1673   2.024       .  S
O1669      C1670   1.268       .  A
C1670      C1698   1.433       .  S
Cr1671     O1674   1.773       .  S
Cr1673     O1674   1.777       .  S
O1675     Cr1693   1.974       .  S
O1675      C1683   1.257       .  A
O1676     Cr1693   1.964       .  S
O1676      C1677   1.249       .  A
C1677      O1678   1.262       .  A
C1677      C1702   1.410       .  S
O1678     Cr1694   1.991       .  S
O1679     Cr1694   2.008       .  S
O1679      C1680   1.260       .  A
C1680      O1681   1.254       .  A
C1680      C1726   1.446   1_554  S
O1681     Cr1695   1.985       .  S
O1682     Cr1695   2.014       .  S
O1682      C1683   1.267       .  A
C1683      C1787   1.444       .  S
O1684     Cr1693   1.991       .  S
O1684      C1692   1.258       .  A
O1685     Cr1693   1.999       .  S
O1685      C1686   1.269       .  A
C1686      O1687   1.263       .  A
C1686      C1763   1.441       .  S
O1687     Cr1694   1.993       .  S
O1688     Cr1694   1.979       .  S
O1688      C1689   1.263       .  A
C1689      O1690   1.272       .  A
C1689      C1706   1.445       .  S
O1690     Cr1695   2.023       .  S
O1691     Cr1695   1.983       .  S
O1691      C1692   1.258       .  A
C1692      C1697   1.433       .  S
Cr1693     O1696   1.784       .  S
Cr1694     O1696   1.772       .  S
Cr1695     O1696   1.779       .  S
C1697      C1698   1.205       .  T
C1699      C1700   1.191       .  T
C1703      C1704   1.205       .  T
C1705      C1706   1.211       .  T
C1707      C1708   1.212       .  T
C1709      C1710   1.209       .  T
C1711      C1712   1.210       .  T
C1713      C1714   1.205       .  T
C1715      C1716   1.187       .  T
C1717      C1718   1.209       .  T
C1719      C1720   1.210       .  T
C1721      C1722   1.193   1_556  T
C1723      C1724   1.205       .  T
C1725      C1726   1.212       .  T
C1727      C1728   1.211       .  T
C1729      C1730   1.213       .  T
C1731      C1732   1.211       .  T
C1733      C1734   1.212       .  T
C1735      C1736   1.205       .  T
C1737      C1738   1.212       .  T
C1739      C1740   1.213       .  T
C1741      C1742   1.211       .  T
C1745      C1746   1.212       .  T
C1747      C1748   1.193   1_554  T
C1749      C1750   1.205       .  T
C1751      C1752   1.212       .  T
C1753      C1754   1.211       .  T
C1755      C1756   1.210       .  T
C1757      C1758   1.214       .  T
C1759      C1760   1.213       .  T
C1761      C1762   1.212       .  T
C1763      C1764   1.212       .  T
C1765      C1766   1.212       .  T
C1767      C1768   1.205       .  T
C1769      C1770   1.212       .  T
C1771      C1772   1.210       .  T
C1773      C1774   1.211       .  T
C1777      C1778   1.214       .  T
C1779      C1780   1.213       .  T
C1781      C1782   1.212       .  T
C1785      C1786   1.205       .  T
C1787      C1788   1.212       .  T
C1789      C1790   1.212       .  T
C1791      C1792   1.212       .  T
