geometry optimzed in LAMMPS
_audit_creation_date              2020-12-01 
_audit_creation_method            'lammps2cif' 
_symmetry_space_group_name_H-M    'P1' 
_symmetry_Int_Tables_number       1 
_symmetry_cell_setting            triclinic 
loop_ 
_symmetry_equiv_pos_as_xyz 
  x,y,z 
_cell_length_a                    38.79874769 
_cell_length_b                    38.76631092055503 
_cell_length_c                    48.84360519948897 
_cell_angle_alpha                 90.03425414075954 
_cell_angle_beta                  89.89902212375222 
_cell_angle_gamma                 89.9938882035949 
loop_ 
_atom_site_label 
_atom_site_type_symbol 
_atom_site_fract_x 
_atom_site_fract_y 
_atom_site_fract_z 
_atom_site_charge 
Zn1        Zn  0.52448489  0.06290764  0.34857731     1.49700
Zn2        Zn  0.53535682  0.14208672  0.36157710     1.49400
Zn3        Zn  0.60048869  0.09543594  0.35531777     1.49100
Zn4        Zn  0.55342165  0.11568961  0.30215944     1.49500
O5          O  0.55354063  0.10361859  0.34152777    -1.84700
O6          O  0.48673669  0.07242967  0.37715311    -0.75300
O7          O  0.56742582  0.15829335  0.39027311    -0.75100
O8          O  0.60623100  0.04618466  0.36727588    -0.74600
O9          O  0.49474815  0.12867290  0.38349174    -0.75300
O10         O  0.55366304  0.02407038  0.36332523    -0.74900
O11         O  0.61416467  0.12570855  0.38780209    -0.75500
O12         O  0.60304144  0.11774325  0.28835250    -0.74900
O13         O  0.52472436  0.18195204  0.33758488    -0.75700
O14         O  0.63382072  0.10439865  0.32525388    -0.75000
O15         O  0.53176414  0.16378554  0.29476549    -0.75500
O16         O  0.52869073  0.07775656  0.28094541    -0.75400
O17         O  0.50552976  0.04427104  0.31313831    -0.75200
C18         C  0.47950995  0.10065279  0.38931009     0.83000
C19         C  0.59681894  0.14956601  0.39922041     0.77100
C20         C  0.58537550  0.02099641  0.36955217     0.76000
C21         C  0.63199666  0.11294166  0.30014259     0.76400
C22         C  0.52379228  0.18736702  0.31194335     0.77500
C23         C  0.51105261  0.05134737  0.28800962     0.76600
Zn24       Zn  0.37995376  0.90863633  0.13870749     1.49700
Zn25       Zn  0.44542641  0.86246898  0.12948893     1.49400
Zn26       Zn  0.45619240  0.94110649  0.14432755     1.49100
Zn27       Zn  0.42854596  0.88747976  0.18972878     1.49500
O28         O  0.42740057  0.90024656  0.15076012    -1.84700
O29         O  0.36575971  0.87754441  0.10719829    -0.75300
O30         O  0.49033963  0.87517691  0.11268576    -0.75100
O31         O  0.42772257  0.97887147  0.12791377    -0.74600
O32         O  0.41404222  0.84867030  0.09876176    -0.75300
O33         O  0.37451522  0.95760586  0.12593624    -0.74900
O34         O  0.49740523  0.93145056  0.11923055    -0.75500
O35         O  0.45078165  0.92598359  0.21207594    -0.74900
O36         O  0.45348489  0.82116621  0.15297720    -0.75700
O37         O  0.47212215  0.96090609  0.18017323    -0.75000
O38         O  0.45272897  0.84109412  0.19573724    -0.75500
O39         O  0.37972495  0.88129514  0.20366143    -0.75400
O40         O  0.34676537  0.89973880  0.16943129    -0.75200
C41         C  0.38289947  0.85586881  0.09311780     0.76600
C42         C  0.50738903  0.90281730  0.10910806     0.77100
C43         C  0.39584055  0.98218941  0.12243286     0.76000
C44         C  0.46689139  0.95341143  0.20523105     0.76400
C45         C  0.45783204  0.81682927  0.17853462     0.77500
C46         C  0.35014989  0.88778990  0.19355463     0.76600
Zn47       Zn  0.62546281  0.81656746  0.42825548     1.49700
Zn48       Zn  0.67887353  0.79126080  0.47433464     1.49400
Zn49       Zn  0.65025240  0.86858626  0.47732635     1.49100
Zn50       Zn  0.60088778  0.80528014  0.48834786     1.49500
O51         O  0.63929613  0.82068236  0.46678592    -1.84700
O52         O  0.66333087  0.79222803  0.40648681    -0.75300
O53         O  0.71592545  0.81871926  0.49215633    -0.75100
O54         O  0.64032294  0.89953478  0.44550591    -0.74600
O55         O  0.70003938  0.77518377  0.43885666    -0.75300
O56         O  0.61933995  0.86499401  0.41297362    -0.74900
O57         O  0.70020076  0.87359856  0.48888453    -0.75500
O58         O  0.59014887  0.83849112  0.01781975    -0.74900
O59         O  0.66722656  0.75153255  0.00022311    -0.75700
O60         O  0.62162474  0.88527376  0.01008654    -0.75000
O61         O  0.61156931  0.76161081  0.00760562    -0.75500
O62         O  0.55862621  0.79690172  0.46621728    -0.75400
O63         O  0.57905047  0.79141132  0.42389372    -0.75200
C64         C  0.69155769  0.77798824  0.41376591     0.76600
C65         C  0.72215670  0.85064538  0.49553273     0.77100
C66         C  0.62700967  0.89498432  0.42193946     0.76000
C67         C  0.59956486  0.86875686  0.02429131     0.76400
C68         C  0.63861470  0.74394238  0.01158821     0.77500
C69         C  0.55452416  0.78882228  0.44123116     0.76600
Zn70       Zn  0.83162059  0.68722326  0.24213715     1.49700
Zn71       Zn  0.84823668  0.73567478  0.29384117     1.49400
Zn72       Zn  0.80733735  0.66200805  0.30049006     1.49100
Zn73       Zn  0.88742874  0.66401521  0.28473872     1.49500
O74         O  0.84358343  0.68753837  0.28071557    -1.84700
O75         O  0.83395022  0.73432738  0.22695828    -0.75300
O76         O  0.81168855  0.74507165  0.32333263    -0.75100
O77         O  0.76860402  0.64578744  0.27529045    -0.74600
O78         O  0.84299323  0.76968783  0.26196947    -0.75300
O79         O  0.78393270  0.67060782  0.23622209    -0.74900
O80         O  0.78423250  0.69462189  0.32666928    -0.75500
O81         O  0.88247537  0.62398731  0.30991667    -0.74900
O82         O  0.89698861  0.74501647  0.30817286    -0.75700
O83         O  0.82710536  0.62078520  0.32137568    -0.75000
O84         O  0.92412251  0.69579697  0.29931565    -0.75500
O85         O  0.90435515  0.64459634  0.24885854    -0.75400
O86         O  0.86362663  0.65843487  0.21910877    -0.75200
C87         C  0.83860021  0.76448037  0.23640088     0.76600
C88         C  0.78790319  0.72612695  0.33352651     0.77100
C89         C  0.76228640  0.65385338  0.25050856     0.76000
C90         C  0.85786769  0.60918780  0.32253274     0.76400
C91         C  0.92451405  0.72693772  0.30765481     0.77500
C92         C  0.89214469  0.64392377  0.22468380     0.76600
Zn93       Zn  0.01150490  0.10565529  0.41631271     1.49700
Zn94       Zn  0.08352101  0.14429249  0.40724974     1.49400
Zn95       Zn  0.08396527  0.06480674  0.42449836     1.49100
Zn96       Zn  0.06018887  0.08778543  0.36540084     1.49500
O97         O  0.05952283  0.10054345  0.40371975    -1.84700
O98         O  0.00347984  0.15410612  0.43163300    -0.75300
O99         O  0.12074519  0.14016353  0.43457946    -0.75100
O100        O  0.05131298  0.04285898  0.45099201    -0.74600
O101        O  0.05169626  0.18156301  0.42023895    -0.75300
O102        O  0.00041709  0.06824660  0.44490894    -0.74900
O103        O  0.12443218  0.08472733  0.44565896    -0.75500
O104        O  0.07948546  0.04112591  0.35962558    -0.74900
O105        O  0.10572538  0.15987874  0.37188311    -0.75700
O106        O  0.10068317  0.02590793  0.40006687    -0.75000
O107        O  0.08917523  0.11922139  0.34292485    -0.75500
O108        O  0.01347825  0.09087495  0.34916721    -0.75400
O109        O  0.97840493  0.10332818  0.38373607    -0.75200
C110        C  0.02116632  0.18181759  0.42981313     0.76600
C111        C  0.13497412  0.11577034  0.44773709     0.77100
C112        C  0.01938173  0.04563451  0.45665723     0.76000
C113        C  0.09578259  0.02004996  0.37471285     0.76400
C114        C  0.10532516  0.14696514  0.34792373     0.77500
C115        C  0.98366769  0.09828046  0.35823338     0.76600
Zn116      Zn  0.97258998  0.89383706  0.07959989     1.49700
Zn117      Zn  0.90032930  0.93606301  0.07415140     1.49400
Zn118      Zn  0.90084613  0.85699011  0.09146669     1.49100
Zn119      Zn  0.92786773  0.91333821  0.13260124     1.49500
O120        O  0.92569222  0.90018220  0.09418344    -1.84700
O121        O  0.98190737  0.92946824  0.04946418    -0.75300
O122        O  0.85836748  0.91668727  0.05467593    -0.75100
O123        O  0.93157959  0.81841814  0.07889900    -0.74600
O124        O  0.93163114  0.95680593  0.04576231    -0.75300
O125        O  0.97983112  0.84455201  0.06588554    -0.74900
O126        O  0.86231569  0.86105846  0.06494055    -0.75500
O127        O  0.89837990  0.88316395  0.15670249    -0.74900
O128        O  0.88564395  0.97548813  0.09907180    -0.75700
O129        O  0.87995058  0.84342901  0.12757485    -0.75000
O130        O  0.91188453  0.96136485  0.13784710    -0.75500
O131        O  0.97581134  0.90996829  0.14685753    -0.75400
O132        O  0.00782887  0.89783453  0.11029865    -0.75200
C133        C  0.96286077  0.95251242  0.03837357     0.76600
C134        C  0.84749410  0.88577757  0.05255272     0.77100
C135        C  0.96187287  0.81720639  0.06889691     0.76000
C136        C  0.88116253  0.85599358  0.15164326     0.76400
C137        C  0.89436343  0.98242020  0.12360925     0.77500
C138        C  0.00478584  0.90314857  0.13596447     0.76600
Zn139      Zn  0.15060723  0.86371541  0.26390471     1.49700
Zn140      Zn  0.10375803  0.79822416  0.25623366     1.49400
Zn141      Zn  0.18295407  0.78812199  0.27031775     1.49100
Zn142      Zn  0.12958926  0.81644653  0.31617375     1.49500
O143        O  0.14196594  0.81668582  0.27695693    -1.84700
O144        O  0.11956567  0.87761169  0.23251453    -0.75300
O145        O  0.11678353  0.75450605  0.23790713    -0.75100
O146        O  0.22161267  0.81682253  0.25479153    -0.74600
O147        O  0.08907283  0.82987343  0.22605543    -0.75300
O148        O  0.19938345  0.86935810  0.25053038    -0.74900
O149        O  0.17340087  0.74903903  0.24343637    -0.75500
O150        O  0.16709796  0.79203229  0.33798457    -0.74900
O151        O  0.06315503  0.78795930  0.28001742    -0.75700
O152        O  0.20090526  0.76902083  0.30590379    -0.75000
O153        O  0.08209337  0.79387196  0.32275315    -0.75500
O154        O  0.12673846  0.86557184  0.33026185    -0.75400
O155        O  0.14221954  0.89703690  0.29423062    -0.75200
C156        C  0.09708370  0.86050147  0.21934438     0.76600
C157        C  0.14495157  0.73892901  0.23321836     0.77100
C158        C  0.22443801  0.84839171  0.24797350     0.76000
C159        C  0.19330688  0.77411837  0.33098233     0.76400
C160        C  0.05850938  0.78571781  0.30571164     0.77500
C161        C  0.13252173  0.89471870  0.31906895     0.76600
Zn162      Zn  0.30764838  0.65861803  0.44610314     1.49700
Zn163      Zn  0.34583441  0.73262474  0.45322391     1.49400
Zn164      Zn  0.33053507  0.68536361  0.00500402     1.49100
Zn165      Zn  0.38715724  0.66228176  0.46226055     1.49500
O166        O  0.34273699  0.68486076  0.46638238    -1.84700
O167        O  0.28652349  0.68920407  0.41729538    -0.75300
O168        O  0.34237727  0.76661492  0.48474566    -0.75100
O169        O  0.28337227  0.66720727  0.01024707    -0.74600
O170        O  0.30817866  0.74169215  0.42489848    -0.75300
O171        O  0.26825275  0.64316678  0.47078423    -0.74900
O172        O  0.33273583  0.73298934  0.02073641    -0.75500
O173        O  0.40344489  0.64247166  0.49814431    -0.74900
O174        O  0.39375032  0.74266987  0.43814629    -0.75700
O175        O  0.36246194  0.65640545  0.02782043    -0.75000
O176        O  0.42327295  0.69523491  0.44838835    -0.75500
O177        O  0.38390506  0.62270223  0.43631583    -0.75400
O178        O  0.32807655  0.61654741  0.42759420    -0.75200
C179        C  0.28770577  0.72142585  0.41218991     0.76600
C180        C  0.33838622  0.76256654  0.01044264     0.77100
C181        C  0.26200740  0.65036429  0.49575893     0.76000
C182        C  0.39093884  0.64172524  0.02226904     0.76400
C183        C  0.42211977  0.72607526  0.43946360     0.77500
C184        C  0.35919179  0.60650156  0.42504898     0.76600
Zn185      Zn  0.09979190  0.29609562  0.24113653     1.49700
Zn186      Zn  0.12430723  0.31415096  0.18050196     1.49400
Zn187      Zn  0.14471638  0.36206128  0.23313146     1.49100
Zn188      Zn  0.17856263  0.28751125  0.22543460     1.49500
O189        O  0.13704416  0.31509470  0.21968763    -1.84700
O190        O  0.05821909  0.28786807  0.21813635    -0.75300
O191        O  0.12199785  0.36323448  0.16626852    -0.75100
O192        O  0.11392536  0.37543163  0.26518363    -0.74600
O193        O  0.07615141  0.29280890  0.17497113    -0.75300
O194        O  0.08590885  0.32648316  0.27256919    -0.74900
O195        O  0.13540301  0.39475027  0.20282801    -0.75500
O196        O  0.21664935  0.31674529  0.24021048    -0.74900
O197        O  0.16114357  0.28906858  0.15791293    -0.75700
O198        O  0.19381970  0.36888851  0.24523098    -0.75000
O199        O  0.19688439  0.26938927  0.18978898    -0.75500
O200        O  0.17046929  0.24844073  0.25224139    -0.75400
O201        O  0.11364969  0.25179104  0.25805422    -0.75200
C202        C  0.05269967  0.28595144  0.19254195     0.76600
C203        C  0.12678593  0.39238375  0.17776930     0.77100
C204        C  0.09275209  0.35746438  0.27906921     0.76000
C205        C  0.21930391  0.34832654  0.24691391     0.76400
C206        C  0.18857568  0.27299794  0.16474320     0.77500
C207        C  0.14244100  0.23731143  0.26254241     0.76600
Zn208      Zn  0.33302476  0.13948642  0.01752563     1.49700
Zn209      Zn  0.30259634  0.21632099  0.02245135     1.49400
Zn210      Zn  0.35342129  0.18772709  0.06949194     1.49100
Zn211      Zn  0.38132965  0.20288076  0.01047140     1.49500
O212        O  0.34217289  0.18657952  0.03038647    -1.84700
O213        O  0.28370464  0.13311982  0.00638069    -0.75300
O214        O  0.28188101  0.23477634  0.05751217    -0.75100
O215        O  0.36062586  0.13885786  0.08290257    -0.74600
O216        O  0.26482445  0.18715874  0.00685643    -0.75300
O217        O  0.34331849  0.10649748  0.04779372    -0.74900
O218        O  0.31294521  0.20919808  0.09001492    -0.75500
O219        O  0.41575670  0.22571716  0.03492373    -0.74900
O220        O  0.31304995  0.25361750  0.49364600    -0.75700
O221        O  0.39797607  0.21481068  0.07733877    -0.75000
O222        O  0.36607086  0.23682753  0.48271284    -0.75500
O223        O  0.40427239  0.16526319  0.48919305    -0.75400
O224        O  0.36335628  0.12560224  0.48521557    -0.75200
C225        C  0.26001171  0.15518303  0.50229354     0.76600
C226        C  0.28709997  0.22742372  0.08263375     0.77100
C227        C  0.35492092  0.10947448  0.07204306     0.76000
C228        C  0.41956682  0.22818962  0.06071220     0.76400
C229        C  0.33965054  0.25537839  0.47830598     0.77500
C230        C  0.39269142  0.13766706  0.47849917     0.76600
Zn231      Zn  0.50806092  0.60714336  0.16554237     1.49700
Zn232      Zn  0.58124033  0.56945244  0.17623920     1.49400
Zn233      Zn  0.55902021  0.59108875  0.11592443     1.49100
Zn234      Zn  0.57968737  0.64866970  0.15784640     1.49500
O235        O  0.55682295  0.60412658  0.15423401    -1.84700
O236        O  0.49684203  0.56967679  0.19393693    -0.75300
O237        O  0.59749374  0.52922512  0.15263694    -0.75100
O238        O  0.51262928  0.59112298  0.09895526    -0.74600
O239        O  0.54896626  0.54907504  0.20391001    -0.75300
O240        O  0.47606665  0.60319321  0.13255692    -0.74900
O241        O  0.58012083  0.54512013  0.11121398    -0.75500
O242        O  0.59854332  0.66652975  0.12168468    -0.74900
O243        O  0.62242181  0.59008774  0.19615077    -0.75700
O244        O  0.58607667  0.62404798  0.09304547    -0.75000
O245        O  0.62000520  0.64483059  0.18283831    -0.75500
O246        O  0.54685592  0.68392518  0.17309255    -0.75400
O247        O  0.49807266  0.65515099  0.18059152    -0.75200
C248        C  0.51650438  0.54978530  0.20778105     0.76600
C249        C  0.59458352  0.52355693  0.12703161     0.77100
C250        C  0.48228341  0.59755044  0.10729749     0.76000
C251        C  0.59935225  0.65336268  0.09779202     0.76400
C252        C  0.63441758  0.62070882  0.19625628     0.77500
C253        C  0.51555086  0.68306693  0.18099133     0.76600
Zn254      Zn  0.43985513  0.35911835  0.35970573     1.49700
Zn255      Zn  0.45442403  0.43646165  0.34734470     1.49400
Zn256      Zn  0.42492388  0.38594000  0.30051222     1.49100
Zn257      Zn  0.37658955  0.40709057  0.35287180     1.49500
O258        O  0.42360220  0.39775153  0.33962577    -1.84700
O259        O  0.47321790  0.37376953  0.38783125    -0.75300
O260        O  0.47281953  0.45643523  0.31212256    -0.75100
O261        O  0.45232761  0.34084539  0.29296103    -0.74600
O262        O  0.49268428  0.42506143  0.37490493    -0.75300
O263        O  0.46345090  0.32544881  0.33582994    -0.74900
O264        O  0.44603836  0.42639610  0.27953522    -0.75500
O265        O  0.34375697  0.40014242  0.32163021    -0.74900
O266        O  0.42650971  0.47441540  0.36438534    -0.75700
O267        O  0.37599016  0.37964332  0.28740375    -0.75000
O268        O  0.37240644  0.45583793  0.36691244    -0.75500
O269        O  0.36112993  0.37404904  0.38342165    -0.75400
O270        O  0.40259979  0.33503292  0.37972978    -0.75200
C271        C  0.49337573  0.39922668  0.39103299     0.76600
C272        C  0.46510686  0.45156162  0.28703496     0.77100
C273        C  0.46622239  0.32040099  0.31024321     0.76000
C274        C  0.34673947  0.38753651  0.29762921     0.76400
C275        C  0.39499071  0.47921233  0.37068106     0.77500
C276        C  0.37403643  0.34490022  0.38977324     0.76600
Zn277      Zn  0.80518188  0.16157563  0.19739832     1.49700
Zn278      Zn  0.84207236  0.23534997  0.20711645     1.49400
Zn279      Zn  0.82711641  0.18419528  0.25766372     1.49100
Zn280      Zn  0.88440363  0.16512443  0.21508989     1.49500
O281        O  0.83958150  0.18680949  0.21907515    -1.84700
O282        O  0.78439360  0.19286646  0.16934355    -0.75300
O283        O  0.83694257  0.26735198  0.23979505    -0.75100
O284        O  0.78102269  0.16285420  0.26257177    -0.74600
O285        O  0.80452535  0.24542796  0.17858875    -0.75300
O286        O  0.76513668  0.14549667  0.22111245    -0.74900
O287        O  0.82673871  0.23110029  0.27406551    -0.75500
O288        O  0.90257965  0.14650112  0.25081204    -0.74900
O289        O  0.89018713  0.24653324  0.19225484    -0.75700
O290        O  0.86066757  0.15696694  0.28046771    -0.75000
O291        O  0.91931850  0.19805688  0.19977194    -0.75500
O292        O  0.88116180  0.12473018  0.19040449    -0.75400
O293        O  0.82628028  0.12029293  0.17795989    -0.75200
C294        C  0.78477676  0.22525304  0.16506378     0.76600
C295        C  0.83192839  0.26147678  0.26517172     0.77100
C296        C  0.75944999  0.14840860  0.24671454     0.76000
C297        C  0.89011666  0.14443642  0.27488033     0.76400
C298        C  0.91826776  0.22931905  0.19185444     0.77500
C299        C  0.85724083  0.10930017  0.17755375     0.76600
Zn300      Zn  0.59330613  0.30018131  0.01357076     1.49700
Zn301      Zn  0.67206819  0.28578075  0.02457810     1.49400
Zn302      Zn  0.64311452  0.36313986  0.01787065     1.49100
Zn303      Zn  0.62255886  0.31756319  0.07205658     1.49500
O304        O  0.63321149  0.31678828  0.03238920    -1.84700
O305        O  0.60389007  0.25801802  0.49242986    -0.75300
O306        O  0.71032005  0.31261247  0.00665167    -0.75100
O307        O  0.61130431  0.37795558  0.48663126    -0.74600
O308        O  0.65933358  0.24626497  0.49850298    -0.75300
O309        O  0.57439647  0.33441743  0.48762326    -0.74900
O310        O  0.69191548  0.36676895  0.00426298    -0.75500
O311        O  0.62119611  0.36724601  0.08499883    -0.74900
O312        O  0.69215183  0.26804418  0.06016375    -0.75700
O313        O  0.63648983  0.39723995  0.04807479    -0.75000
O314        O  0.66144481  0.29408682  0.09282528    -0.75500
O315        O  0.57487313  0.29568874  0.08115105    -0.75400
O316        O  0.55528676  0.28933624  0.03877677    -0.75200
C317        C  0.63023096  0.23949849  0.48765335     0.76600
C318        C  0.71519570  0.34414312  0.50039139     0.77100
C319        C  0.58383904  0.36345062  0.47828396     0.76000
C320        C  0.62746829  0.39588472  0.07314378     0.76400
C321        C  0.68673958  0.27521481  0.08532083     0.77500
C322        C  0.55079424  0.28783107  0.06444610     0.76600
Zn323      Zn  0.06038112  0.58727497  0.13195826     1.49700
Zn324      Zn  0.01073864  0.60554839  0.08171141     1.49400
Zn325      Zn  0.08371147  0.64294734  0.09024250     1.49100
Zn326      Zn  0.08233056  0.56348882  0.07209255     1.49500
O327        O  0.05900220  0.59966262  0.09358537    -1.84700
O328        O  0.01406404  0.59050832  0.14875242    -0.75300
O329        O  0.00309880  0.65460006  0.06738541    -0.75100
O330        O  0.10565283  0.65899751  0.12550933    -0.74600
O331        O  0.97827275  0.60274184  0.11472303    -0.75300
O332        O  0.09001238  0.61824238  0.15462283    -0.74900
O333        O  0.05264530  0.68064022  0.07707732    -0.75500
O334        O  0.12352646  0.58261320  0.05084756    -0.74900
O335        O  0.99834411  0.56868254  0.05283669    -0.75700
O336        O  0.12200437  0.63744597  0.06414191    -0.75000
O337        O  0.04868594  0.54249545  0.04589605    -0.75500
O338        O  0.09819168  0.52383460  0.09634627    -0.75400
O339        O  0.07850928  0.54035240  0.13700737    -0.75200
C340        C  0.98405303  0.59768311  0.14013050     0.76600
C341        C  0.02164871  0.68180709  0.06863543     0.77100
C342        C  0.10577160  0.64617922  0.14946362     0.76000
C343        C  0.13580595  0.61313530  0.05055567     0.76400
C344        C  0.01667847  0.54577702  0.04073545     0.77500
C345        C  0.09360749  0.51845052  0.12183358     0.76600
Zn346      Zn  0.92320850  0.41103778  0.36731483     1.49700
Zn347      Zn  0.89497604  0.43344733  0.42574547     1.49400
Zn348      Zn  0.89762042  0.35419097  0.40883636     1.49100
Zn349      Zn  0.96829304  0.39223665  0.42006362     1.49500
O350        O  0.92128666  0.39797097  0.40577817    -1.84700
O351        O  0.90796448  0.45959684  0.36229856    -0.75300
O352        O  0.85249466  0.41291509  0.44435071    -0.75100
O353        O  0.87713697  0.34006320  0.37305380    -0.74600
O354        O  0.88062614  0.47328795  0.40080213    -0.75300
O355        O  0.89295333  0.38079713  0.34378906    -0.74900
O356        O  0.85855585  0.35721572  0.43487833    -0.75500
O357        O  0.97636232  0.34348107  0.43470280    -0.74900
O358        O  0.92595518  0.45465361  0.45443008    -0.75700
O359        O  0.92887893  0.31634457  0.42144464    -0.75000
O360        O  0.97694920  0.42881950  0.44948706    -0.75500
O361        O  0.00342135  0.39535763  0.38898151    -0.75400
O362        O  0.97111457  0.40673277  0.35252987    -0.75200
C363        C  0.89024778  0.48063772  0.37651199     0.76600
C364        C  0.84241778  0.38168802  0.44652849     0.77100
C365        C  0.87691971  0.35295406  0.34911850     0.76000
C366        C  0.95901378  0.31576497  0.43164382     0.76400
C367        C  0.95759559  0.45132547  0.46102894     0.77500
C368        C  0.00017634  0.39997168  0.36325030     0.76600
C369        C  0.02142039  0.49604274  0.50802342    -0.13900
C370        C  0.00100035  0.52170969  0.02050034     0.08200
C371        C  0.96585757  0.52341561  0.01374223    -0.13900
C372        C  0.95164991  0.50027472  0.99476261    -0.13900
C373        C  0.97223882  0.47484284  0.48211988     0.08200
C374        C  0.00725449  0.47296176  0.48913558    -0.13900
H375        H  0.04856520  0.49373338  0.51279587     0.12200
H376        H  0.94934841  0.54267814  0.02304178     0.12200
H377        H  0.92454258  0.50251121  0.98984270     0.12200
H378        H  0.02389704  0.45380565  0.47984348     0.12200
C379        C  0.77269324  0.32910232  0.98077768    -0.13900
C380        C  0.74849326  0.35442222  0.48804795     0.08200
C381        C  0.75619836  0.38929227  0.48283949    -0.13900
C382        C  0.78722653  0.39850819  0.47009931    -0.13900
C383        C  0.81093104  0.37298846  0.46217979     0.08200
C384        C  0.80344410  0.33825064  0.46795276    -0.13900
H385        H  0.76764946  0.30203522  0.98453502     0.12200
H386        H  0.73810014  0.40941973  0.48831588     0.12200
H387        H  0.79224824  0.42545664  0.46583819     0.12200
H388        H  0.82120750  0.31792290  0.46223226     0.12200
C389        C  0.82680008  0.28339033  0.31292981    -0.13900
C390        C  0.83549253  0.28957535  0.28543040     0.08200
C391        C  0.85316667  0.32007046  0.27869175    -0.13900
C392        C  0.86482371  0.34218259  0.29936694    -0.13900
C393        C  0.85895792  0.33408015  0.32704105     0.08200
C394        C  0.83844216  0.30536560  0.33350435    -0.13900
H395        H  0.81285682  0.26032531  0.31876970     0.12200
H396        H  0.86023373  0.32553011  0.25767715     0.12200
H397        H  0.88029514  0.36433517  0.29375636     0.12200
H398        H  0.83290385  0.29877179  0.35460407     0.12200
C399        C  0.74420678  0.27090422  0.14806473    -0.13900
C400        C  0.76091452  0.23913213  0.14420656     0.08200
C401        C  0.75269430  0.21918325  0.12108163    -0.13900
C402        C  0.72856113  0.23088668  0.10200519    -0.13900
C403        C  0.71130977  0.26229641  0.10607987     0.08200
C404        C  0.71925418  0.28217018  0.12934598    -0.13900
H405        H  0.74978989  0.28654900  0.16589215     0.12200
H406        H  0.76511679  0.19451697  0.11769115     0.12200
H407        H  0.72306145  0.21516541  0.08420118     0.12200
H408        H  0.70662095  0.30671533  0.13277619     0.12200
C409        C  0.50370919  0.38413280  0.43917049    -0.13900
C410        C  0.51676383  0.39782354  0.41471106     0.08200
C411        C  0.55218535  0.40501827  0.41260446    -0.13900
C412        C  0.57451691  0.39603728  0.43415128    -0.13900
C413        C  0.56139060  0.37982177  0.45773452     0.08200
C414        C  0.52571884  0.37523129  0.46038838    -0.13900
H415        H  0.47644062  0.37868877  0.44135229     0.12200
H416        H  0.56275821  0.41536158  0.39379133     0.12200
H417        H  0.60202130  0.39965832  0.43168077     0.12200
H418        H  0.51494113  0.36319498  0.47850249     0.12200
C419        C  0.61608058  0.49083815  0.08690158    -0.13900
C420        C  0.60748320  0.49129055  0.11481032     0.08200
C421        C  0.60842127  0.46038203  0.12976204    -0.13900
C422        C  0.61590338  0.42918142  0.11650218    -0.13900
C423        C  0.62302436  0.42865769  0.08823599     0.08200
C424        C  0.62394861  0.45996853  0.07381222    -0.13900
H425        H  0.61587651  0.51437373  0.07494999     0.12200
H426        H  0.60179754  0.46012561  0.15130984     0.12200
H427        H  0.61522445  0.40545404  0.12817722     0.12200
H428        H  0.62950683  0.46058706  0.05208098     0.12200
C429        C  0.47024354  0.50949888  0.22440843    -0.13900
C430        C  0.50196043  0.52615565  0.22857856     0.08200
C431        C  0.52134338  0.51800127  0.25196578    -0.13900
C432        C  0.50928486  0.49381836  0.27088715    -0.13900
C433        C  0.47803416  0.47646076  0.26645619     0.08200
C434        C  0.45858756  0.48449864  0.24302236    -0.13900
H435        H  0.45500748  0.51508127  0.20638936     0.12200
H436        H  0.54591949  0.53042061  0.25563115     0.12200
H437        H  0.52468970  0.48829331  0.28883048     0.12200
H438        H  0.43416162  0.47181724  0.23932463     0.12200
C439        C  0.45548363  0.28076156  0.06090936    -0.13900
C440        C  0.45004234  0.24720855  0.07061148     0.08200
C441        C  0.47702942  0.23009192  0.08419499    -0.13900
C442        C  0.51000687  0.24517520  0.08554595    -0.13900
C443        C  0.51600041  0.27755640  0.07352661     0.08200
C444        C  0.48804158  0.29584628  0.06250897    -0.13900
H445        H  0.43517196  0.29424799  0.05011059     0.12200
H446        H  0.47350358  0.20388888  0.09134885     0.12200
H447        H  0.53134631  0.23022400  0.09347743     0.12200
H448        H  0.49217904  0.32057658  0.05269992     0.12200
C449        C  0.35706131  0.26487266  0.43044852    -0.13900
C450        C  0.34074681  0.27782833  0.45393138     0.08200
C451        C  0.32990441  0.31243437  0.45431751    -0.13900
C452        C  0.33823443  0.33441801  0.43230707    -0.13900
C453        C  0.35727819  0.32176113  0.40985939     0.08200
C454        C  0.36510163  0.28646880  0.40869747    -0.13900
H455        H  0.36514578  0.23813474  0.42945655     0.12200
H456        H  0.31724230  0.32292615  0.47225559     0.12200
H457        H  0.33196649  0.36158268  0.43370162     0.12200
H458        H  0.37926790  0.27583093  0.39151908     0.12200
C459        C  0.98949308  0.29537709  0.19062922    -0.13900
C460        C  0.01810175  0.27481243  0.18398242     0.08200
C461        C  0.01281209  0.24071531  0.17544706    -0.13900
C462        C  0.97961653  0.22650251  0.17581383    -0.13900
C463        C  0.95116557  0.24635411  0.18436390     0.08200
C464        C  0.95620574  0.28142644  0.19041471    -0.13900
H465        H  0.99317415  0.32157866  0.19777681     0.12200
H466        H  0.03461640  0.22425732  0.17079000     0.12200
H467        H  0.97649444  0.19938392  0.17108232     0.12200
H468        H  0.93489727  0.29724811  0.19735404     0.12200
C469        C  0.25389898  0.38978348  0.27474594    -0.13900
C470        C  0.25258478  0.36095100  0.25738650     0.08200
C471        C  0.28314348  0.34302004  0.25134386    -0.13900
C472        C  0.31425562  0.35294510  0.26327961    -0.13900
C473        C  0.31517452  0.38050040  0.28190046     0.08200
C474        C  0.28488702  0.39924168  0.28715549    -0.13900
H475        H  0.23071332  0.40407079  0.27968487     0.12200
H476        H  0.28286110  0.32087938  0.23780745     0.12200
H477        H  0.33724388  0.33802589  0.25896992     0.12200
H478        H  0.28502930  0.42072166  0.30134747     0.12200
C479        C  0.24328097  0.24297744  0.15112305    -0.13900
C480        C  0.21255599  0.25966864  0.14341321     0.08200
C481        C  0.20654603  0.26561963  0.11543890    -0.13900
C482        C  0.23088632  0.25554039  0.09574356    -0.13900
C483        C  0.26180839  0.23924792  0.10355029     0.08200
C484        C  0.26752820  0.23288408  0.13147907    -0.13900
H485        H  0.24891118  0.23806072  0.17247253     0.12200
H486        H  0.18327871  0.27853370  0.10877282     0.12200
H487        H  0.22542284  0.26048876  0.07437174     0.12200
H488        H  0.29085993  0.22016146  0.13823740     0.12200
C489        C  0.03327701  0.41381049  0.32066546    -0.13900
C490        C  0.02978011  0.39430023  0.34476819     0.08200
C491        C  0.05074218  0.36516330  0.34847636    -0.13900
C492        C  0.07262425  0.35404566  0.32745352    -0.13900
C493        C  0.07480728  0.37258900  0.30282860     0.08200
C494        C  0.05611756  0.40335290  0.30002642    -0.13900
H495        H  0.01713622  0.43620153  0.31727904     0.12200
H496        H  0.04812641  0.34941560  0.36667795     0.12200
H497        H  0.08681655  0.33018774  0.32995501     0.12200
H498        H  0.05726358  0.41785763  0.28109874     0.12200
C499        C  0.11641396  0.42462710  0.13378046    -0.13900
C500        C  0.12130335  0.42460743  0.16232113     0.08200
C501        C  0.11957918  0.45594404  0.17666129    -0.13900
C502        C  0.11169966  0.48636916  0.16310395    -0.13900
C503        C  0.10564747  0.48639408  0.13480067     0.08200
C504        C  0.10887412  0.45545711  0.12004157    -0.13900
H505        H  0.11781831  0.40083086  0.12221192     0.12200
H506        H  0.12330271  0.45692977  0.19861981     0.12200
H507        H  0.10973296  0.50992076  0.17496029     0.12200
H508        H  0.10426265  0.45489602  0.09818488     0.12200
C509        C  0.18830513  0.64829850  0.04556902    -0.13900
C510        C  0.16778276  0.62129793  0.03561653     0.08200
C511        C  0.17826475  0.60338462  0.01200008    -0.13900
C512        C  0.20875167  0.61294718  0.99838921    -0.13900
C513        C  0.22926606  0.63992431  0.00871415     0.08200
C514        C  0.21863504  0.65734604  0.03242470    -0.13900
H515        H  0.18109419  0.66237662  0.06387610     0.12200
H516        H  0.16276473  0.58248989  0.00395822     0.12200
H517        H  0.21650147  0.59905999  0.98014802     0.12200
H518        H  0.23370621  0.67832977  0.54085406     0.12200
C519        C  0.40168338  0.62952083  0.07207772    -0.13900
C520        C  0.41066787  0.62469630  0.04440156     0.08200
C521        C  0.44047416  0.60576460  0.03809557    -0.13900
C522        C  0.46224007  0.59429155  0.05886904    -0.13900
C523        C  0.45486943  0.60165641  0.08647378     0.08200
C524        C  0.42363699  0.61814015  0.09295083    -0.13900
H525        H  0.37869714  0.64378226  0.07760373     0.12200
H526        H  0.44785824  0.60111642  0.01701979     0.12200
H527        H  0.48592923  0.58136311  0.05313729     0.12200
H528        H  0.41722449  0.62421929  0.11399412     0.12200
C529        C  0.34170776  0.55044837  0.40331554    -0.13900
C530        C  0.36726452  0.57499881  0.40928246     0.08200
C531        C  0.40142972  0.56842680  0.40132802    -0.13900
C532        C  0.41010141  0.53767753  0.38829206    -0.13900
C533        C  0.38486885  0.51257124  0.38302408     0.08200
C534        C  0.35046070  0.51940673  0.39037902    -0.13900
H535        H  0.31517397  0.55480721  0.40931220     0.12200
H536        H  0.42167203  0.58693452  0.40547543     0.12200
H537        H  0.43681220  0.53336734  0.38279424     0.12200
H538        H  0.33041853  0.50059341  0.38652766     0.12200
C539        C  0.12112293  0.68232961  0.21992953    -0.13900
C540        C  0.14364064  0.70965972  0.21428430     0.08200
C541        C  0.15768479  0.71303302  0.18794932    -0.13900
C542        C  0.14694351  0.69102579  0.16688781    -0.13900
C543        C  0.12250961  0.66505532  0.17212040     0.08200
C544        C  0.11105256  0.65984872  0.19912005    -0.13900
H545        H  0.10958994  0.67977743  0.24004672     0.12200
H546        H  0.17455676  0.73446568  0.18314421     0.12200
H547        H  0.15632251  0.69544971  0.14629019     0.12200
H548        H  0.09219439  0.64009526  0.20377785     0.12200
C549        C  0.23632591  0.73036120  0.34686931    -0.13900
C550        C  0.21641064  0.75989419  0.35226481     0.08200
C551        C  0.22049044  0.77694756  0.37746792    -0.13900
C552        C  0.24450293  0.76505721  0.39666499    -0.13900
C553        C  0.26407406  0.73535447  0.39130926     0.08200
C554        C  0.25950310  0.71788039  0.36640556    -0.13900
H555        H  0.23379591  0.71678225  0.32759053     0.12200
H556        H  0.20573028  0.79996124  0.38204147     0.12200
H557        H  0.24733191  0.77865015  0.41591206     0.12200
H558        H  0.27422517  0.69480059  0.36194023     0.12200
C559        C  0.95599923  0.75340971  0.06140252    -0.13900
C560        C  0.97706427  0.78293378  0.06260821     0.08200
C561        C  0.01299269  0.77869404  0.06146046    -0.13900
C562        C  0.02752386  0.74564042  0.06146100    -0.13900
C563        C  0.00645328  0.71607523  0.06234075     0.08200
C564        C  0.97053110  0.72034442  0.06111439    -0.13900
H565        H  0.92819886  0.75580714  0.06206116     0.12200
H566        H  0.02994669  0.80085568  0.06238040     0.12200
H567        H  0.05532106  0.74329833  0.06223140     0.12200
H568        H  0.95355986  0.69818213  0.06174646     0.12200
C569        C  0.85600537  0.03461344  0.12722690    -0.13900
C570        C  0.88460934  0.01553005  0.13628481     0.08200
C571        C  0.90396639  0.02781862  0.15847566    -0.13900
C572        C  0.89501851  0.05842354  0.17144410    -0.13900
C573        C  0.86616720  0.07732861  0.16284319     0.08200
C574        C  0.84657731  0.06519192  0.14066297    -0.13900
H575        H  0.84062493  0.02555847  0.11019593     0.12200
H576        H  0.92624169  0.01377705  0.16583475     0.12200
H577        H  0.91048045  0.06701212  0.18859397     0.12200
H578        H  0.82426427  0.07942356  0.13364186     0.12200
C579        C  0.05636969  0.86970127  0.14996440    -0.13900
C580        C  0.03450916  0.89804422  0.15424724     0.08200
C581        C  0.03713101  0.91686744  0.17877763    -0.13900
C582        C  0.05984809  0.90626735  0.19934287    -0.13900
C583        C  0.07932713  0.87612347  0.19591252     0.08200
C584        C  0.07818631  0.85846053  0.17086093    -0.13900
H585        H  0.05444931  0.85449561  0.13141350     0.12200
H586        H  0.02030422  0.93865760  0.18257849     0.12200
H587        H  0.06028947  0.92005214  0.21863734     0.12200
H588        H  0.09306434  0.83508707  0.16794406     0.12200
C589        C  0.96938161  0.21907085  0.43808957    -0.13900
C590        C  0.00537661  0.21554175  0.43692432     0.08200
C591        C  0.02589751  0.24541543  0.43871352    -0.13900
C592        C  0.01074377  0.27819083  0.43936323    -0.13900
C593        C  0.97476224  0.28177513  0.43792144     0.08200
C594        C  0.95424200  0.25183409  0.43842170    -0.13900
H595        H  0.95284355  0.19662680  0.43680551     0.12200
H596        H  0.05374181  0.24356476  0.43809812     0.12200
H597        H  0.02728009  0.30069240  0.43902975     0.12200
H598        H  0.92641395  0.25370525  0.43754136     0.12200
C599        C  0.90342167  0.13415492  0.32459598    -0.13900
C600        C  0.91075370  0.12801019  0.29678193     0.08200
C601        C  0.93947063  0.10773525  0.28996128    -0.13900
C602        C  0.96162043  0.09573870  0.31030287    -0.13900
C603        C  0.95580473  0.10395950  0.33799204     0.08200
C604        C  0.92581874  0.12231324  0.34503649    -0.13900
H605        H  0.88135985  0.14960207  0.33048532     0.12200
H606        H  0.94552153  0.10208879  0.26877075     0.12200
H607        H  0.98433180  0.08143882  0.30414032     0.12200
H608        H  0.92069613  0.12922313  0.36614008     0.12200
C609        C  0.10965818  0.95697148  0.37630484    -0.13900
C610        C  0.10897908  0.98832946  0.36197716     0.08200
C611        C  0.11869541  0.98899469  0.33432955    -0.13900
C612        C  0.12772176  0.95870128  0.32085918    -0.13900
C613        C  0.12670578  0.92690473  0.33462618     0.08200
C614        C  0.11818825  0.92635002  0.36264051    -0.13900
H615        H  0.10214329  0.95594650  0.39765533     0.12200
H616        H  0.11867439  0.01297339  0.32294076     0.12200
H617        H  0.13432016  0.96013415  0.29933614     0.12200
H618        H  0.11733624  0.90223571  0.37379767     0.12200
C619        C  0.96937549  0.02256989  0.48407154    -0.13900
C620        C  0.00451899  0.02156582  0.47723496     0.08200
C621        C  0.02567593  0.99691479  0.99015967    -0.13900
C622        C  0.01215624  0.97417280  0.00964501    -0.13900
C623        C  0.97711804  0.97547642  0.01676418     0.08200
C624        C  0.95585015  0.99982878  0.50360338    -0.13900
H625        H  0.95232357  0.04102580  0.47443209     0.12200
H626        H  0.05287646  0.99523880  0.98533964     0.12200
H627        H  0.02927336  0.95583077  0.01935068     0.12200
H628        H  0.92868035  0.00152963  0.50852413     0.12200
C629        C  0.14486489  0.19281090  0.32990713    -0.13900
C630        C  0.12202301  0.16537462  0.32501798     0.08200
C631        C  0.11209705  0.15801035  0.29794995    -0.13900
C632        C  0.12185223  0.17982749  0.27662296    -0.13900
C633        C  0.14251606  0.20863964  0.28190750     0.08200
C634        C  0.15527630  0.21417701  0.30838077    -0.13900
H635        H  0.15309272  0.19890643  0.35052557     0.12200
H636        H  0.09456300  0.13700718  0.29351582     0.12200
H637        H  0.11129930  0.17563825  0.25636805     0.12200
H638        H  0.17066383  0.23680879  0.31284558     0.12200
C639        C  0.17131205  0.15916573  0.47138884    -0.13900
C640        C  0.16489539  0.12443153  0.46499755     0.08200
C641        C  0.18862884  0.09918303  0.47330840    -0.13900
C642        C  0.21928162  0.10889248  0.48631430    -0.13900
C643        C  0.22640393  0.14393636  0.49132322     0.08200
C644        C  0.20161656  0.16878469  0.48442857    -0.13900
H645        H  0.15328919  0.17920589  0.46559579     0.12200
H646        H  0.18422807  0.07221035  0.46871098     0.12200
H647        H  0.23779668  0.08912729  0.49167772     0.12200
H648        H  0.20606861  0.19594228  0.48825399     0.12200
C649        C  0.96254935  0.77885206  0.31430418    -0.13900
C650        C  0.95828819  0.74279924  0.31472473     0.08200
C651        C  0.98774765  0.72190111  0.31767902    -0.13900
C652        C  0.02075741  0.73648710  0.31779171    -0.13900
C653        C  0.02499139  0.77220207  0.31498583     0.08200
C654        C  0.99566955  0.79338695  0.31411771    -0.13900
H655        H  0.94048807  0.79568288  0.31188357     0.12200
H656        H  0.98543502  0.69406709  0.31812443     0.12200
H657        H  0.04304897  0.71965272  0.31788127     0.12200
H658        H  0.99843540  0.82096805  0.31132771     0.12200
C659        C  0.71688775  0.66532407  0.21607067    -0.13900
C660        C  0.72898706  0.64491182  0.23774352     0.08200
C661        C  0.70923947  0.61654362  0.24643525    -0.13900
C662        C  0.67832318  0.60828153  0.23302692    -0.13900
C663        C  0.66644455  0.62883144  0.21126453     0.08200
C664        C  0.68593522  0.65757585  0.20317568    -0.13900
H665        H  0.73134919  0.68755688  0.20908701     0.12200
H666        H  0.71803631  0.60044559  0.26313274     0.12200
H667        H  0.66368802  0.58602973  0.23970080     0.12200
H668        H  0.67760087  0.67383783  0.18641624     0.12200
C669        C  0.84224955  0.80928152  0.16833826    -0.13900
C670        C  0.86366496  0.83747977  0.17423421     0.08200
C671        C  0.87098975  0.84524766  0.20178054    -0.13900
C672        C  0.86004138  0.82311233  0.22274587    -0.13900
C673        C  0.84161030  0.79297453  0.21640678     0.08200
C674        C  0.83128827  0.78734217  0.18918274    -0.13900
H675        H  0.83553073  0.80297835  0.14741066     0.12200
H676        H  0.88712902  0.86706585  0.20698839     0.12200
H677        H  0.86827569  0.82816630  0.24353816     0.12200
H678        H  0.81658440  0.76462650  0.18367768     0.12200
C679        C  0.94123343  0.60710515  0.20903942    -0.13900
C680        C  0.91218872  0.62705841  0.20258114     0.08200
C681        C  0.90416577  0.63279868  0.17485910    -0.13900
C682        C  0.92620375  0.62096281  0.15412476    -0.13900
C683        C  0.95656034  0.60309085  0.16077838     0.08200
C684        C  0.96307371  0.59517529  0.18840181    -0.13900
H685        H  0.94787827  0.60180316  0.23014994     0.12200
H686        H  0.88183921  0.64796692  0.16922735     0.12200
H687        H  0.92053256  0.62758443  0.13307317     0.12200
H688        H  0.98610105  0.58123557  0.19426359     0.12200
C689        C  0.84370046  0.56386019  0.35804752    -0.13900
C690        C  0.86578316  0.57713057  0.33773986     0.08200
C691        C  0.89599329  0.55891895  0.33118611    -0.13900
C692        C  0.90367213  0.52788305  0.34404856    -0.13900
C693        C  0.88169460  0.51436245  0.36418602     0.08200
C694        C  0.85184075  0.53283397  0.37144611    -0.13900
H695        H  0.82028349  0.57741962  0.36353293     0.12200
H696        H  0.91351475  0.56827093  0.31557712     0.12200
H697        H  0.92699936  0.51438874  0.33817666     0.12200
H698        H  0.83446122  0.52287157  0.38690623     0.12200
C699        C  0.51702376  0.74063216  0.42536170    -0.13900
C700        C  0.52054629  0.77524018  0.43326678     0.08200
C701        C  0.49090065  0.79460561  0.43918929    -0.13900
C702        C  0.45832083  0.77920834  0.43859102    -0.13900
C703        C  0.45493122  0.74383084  0.43295376     0.08200
C704        C  0.48446962  0.72490808  0.42551354    -0.13900
H705        H  0.53965720  0.72508891  0.42126282     0.12200
H706        H  0.49317670  0.82119658  0.44578260     0.12200
H707        H  0.43614134  0.79433034  0.44475039     0.12200
H708        H  0.48260362  0.69755990  0.42121995     0.12200
C709        C  0.64982070  0.72012152  0.05769992    -0.13900
C710        C  0.63608067  0.71566123  0.03138592     0.08200
C711        C  0.61293401  0.68862612  0.02653565    -0.13900
C712        C  0.60267414  0.66703459  0.04793155    -0.13900
C713        C  0.61451891  0.67289253  0.07473788     0.08200
C714        C  0.63886395  0.69908374  0.07932035    -0.13900
H715        H  0.66699013  0.74149946  0.06193814     0.12200
H716        H  0.60140135  0.68541327  0.00650942     0.12200
H717        H  0.58376283  0.64715331  0.04381205     0.12200
H718        H  0.64846526  0.70405685  0.09975151     0.12200
C719        C  0.77812436  0.83472763  0.01691646    -0.13900
C720        C  0.75538812  0.86060343  0.00807172     0.08200
C721        C  0.76424170  0.89536167  0.51243763    -0.13900
C722        C  0.79477160  0.90390754  0.02618394    -0.13900
C723        C  0.81673624  0.87779815  0.03589247     0.08200
C724        C  0.80829726  0.84319862  0.03067090    -0.13900
H725        H  0.77229162  0.80769457  0.01378771     0.12200
H726        H  0.74729669  0.91587461  0.50573628     0.12200
H727        H  0.80067638  0.93080835  0.52986762     0.12200
H728        H  0.82477999  0.82243084  0.03762179     0.12200
C729        C  0.70458328  0.74417318  0.37135755    -0.13900
C730        C  0.71585373  0.76543835  0.39274499     0.08200
C731        C  0.75085147  0.77470613  0.39412272    -0.13900
C732        C  0.77425559  0.76294563  0.37434071    -0.13900
C733        C  0.76321099  0.74071500  0.35346777     0.08200
C734        C  0.72819577  0.73139749  0.35216726    -0.13900
H735        H  0.67772751  0.73676624  0.36992671     0.12200
H736        H  0.75998667  0.79132504  0.41040470     0.12200
H737        H  0.80110119  0.77037684  0.37579088     0.12200
H738        H  0.71907672  0.71437285  0.33614610     0.12200
C739        C  0.50374056  0.77792936  0.19597079    -0.13900
C740        C  0.46957450  0.78263785  0.18751098     0.08200
C741        C  0.44916158  0.75369489  0.18168587    -0.13900
C742        C  0.46335317  0.72056514  0.18246275    -0.13900
C743        C  0.49851358  0.71600405  0.18824503     0.08200
C744        C  0.51822425  0.74482700  0.19612749    -0.13900
H745        H  0.52001210  0.80002692  0.20010117     0.12200
H746        H  0.42285323  0.75694444  0.17474345     0.12200
H747        H  0.44760775  0.69893982  0.17609370     0.12200
H748        H  0.54539324  0.74203523  0.20067706     0.12200
C749        C  0.40050786  0.04615427  0.11806275    -0.13900
C750        C  0.38349661  0.01526794  0.11145708     0.08200
C751        C  0.35536170  0.01607092  0.09349021    -0.13900
C752        C  0.34545439  0.04700988  0.08125232    -0.13900
C753        C  0.36296916  0.07778065  0.08731302     0.08200
C754        C  0.39003781  0.07728110  0.10632659    -0.13900
H755        H  0.42211525  0.04614616  0.13207835     0.12200
H756        H  0.34187277  0.99257086  0.08810316     0.12200
H757        H  0.32442312  0.04680194  0.06669578     0.12200
H758        H  0.40403557  0.10065961  0.11119847     0.12200
C759        C  0.54456331  0.92413000  0.07050687    -0.13900
C760        C  0.53850188  0.90051646  0.09184557     0.08200
C761        C  0.55826205  0.87029468  0.09317302    -0.13900
C762        C  0.58088437  0.86188841  0.07210532    -0.13900
C763        C  0.58427049  0.88351872  0.04927029     0.08200
C764        C  0.56745892  0.91561616  0.04918768    -0.13900
H765        H  0.52935648  0.94747780  0.06899935     0.12200
H766        H  0.55420369  0.85182602  0.10951044     0.12200
H767        H  0.59384724  0.83712988  0.07265215     0.12200
H768        H  0.56960007  0.93253655  0.03163273     0.12200
C769        C  0.33835977  0.81570264  0.07517779    -0.13900
C770        C  0.36645544  0.83757987  0.07023820     0.08200
C771        C  0.38164157  0.83815606  0.04416459    -0.13900
C772        C  0.36993878  0.81592970  0.02362225    -0.13900
C773        C  0.34373003  0.79192909  0.02921885     0.08200
C774        C  0.32739076  0.79264497  0.05492780    -0.13900
H775        H  0.32657847  0.81471078  0.09528609     0.12200
H776        H  0.40349780  0.85477917  0.04008456     0.12200
H777        H  0.38327485  0.81557969  0.00411956     0.12200
H778        H  0.30729346  0.77422977  0.05977623     0.12200
C779        C  0.28779051  0.89739581  0.20391953    -0.13900
C780        C  0.31882253  0.88020020  0.20965496     0.08200
C781        C  0.31902054  0.85397629  0.22948473    -0.13900
C782        C  0.28839446  0.84400379  0.24236581    -0.13900
C783        C  0.25722675  0.86065604  0.23612057     0.08200
C784        C  0.25735035  0.88799402  0.21728061    -0.13900
H785        H  0.28696661  0.91778313  0.18877949     0.12200
H786        H  0.34256780  0.84021179  0.23419541     0.12200
H787        H  0.28898464  0.82297509  0.25694997     0.12200
H788        H  0.23364956  0.90119209  0.21206078     0.12200
C789        C  0.53116798  0.25019417  0.31627888    -0.13900
C790        C  0.51449113  0.22265634  0.30321316     0.08200
C791        C  0.48532903  0.22949369  0.28702811    -0.13900
C792        C  0.47115421  0.26299492  0.28635980    -0.13900
C793        C  0.48616299  0.28967465  0.30184212     0.08200
C794        C  0.51723167  0.28327414  0.31556119    -0.13900
H795        H  0.55363346  0.24554470  0.32890839     0.12200
H796        H  0.47180812  0.20853375  0.27707046     0.12200
H797        H  0.44684099  0.26719222  0.27602957     0.12200
H798        H  0.52916319  0.30332253  0.32777532     0.12200
C799        C  0.42083093  0.09664045  0.41151073    -0.13900
C800        C  0.45659803  0.10155885  0.41327182     0.08200
C801        C  0.47094985  0.11350307  0.43782623    -0.13900
C802        C  0.44996783  0.12289854  0.45966029    -0.13900
C803        C  0.41405806  0.12048873  0.45750328     0.08200
C804        C  0.39955832  0.10595312  0.43370536    -0.13900
H805        H  0.40931620  0.08785157  0.39257188     0.12200
H806        H  0.49852379  0.11748411  0.43953142     0.12200
H807        H  0.46178919  0.13373467  0.47781435     0.12200
H808        H  0.37184500  0.10409681  0.43155823     0.12200
C809        C  0.57920335  0.95718043  0.37625968    -0.13900
C810        C  0.59806728  0.98772529  0.38031082     0.08200
C811        C  0.62840623  0.98654890  0.39592633    -0.13900
C812        C  0.63856816  0.95592737  0.40857411    -0.13900
C813        C  0.61902632  0.92572015  0.40536713     0.08200
C814        C  0.58981709  0.92632382  0.38845485    -0.13900
H815        H  0.55587350  0.95729549  0.36411346     0.12200
H816        H  0.64351318  0.00963770  0.39934563     0.12200
H817        H  0.66128294  0.95605111  0.42144229     0.12200
H818        H  0.57423201  0.90339099  0.38579899     0.12200
C819        C  0.48011437  0.99709998  0.27412358    -0.13900
C820        C  0.49824282  0.02716030  0.26670616     0.08200
C821        C  0.50625185  0.03243300  0.23895815    -0.13900
C822        C  0.49656065  0.00822523  0.21916706    -0.13900
C823        C  0.47862766  0.97806280  0.22658624     0.08200
C824        C  0.47043045  0.97285711  0.25431241    -0.13900
H825        H  0.47369446  0.99205755  0.29533029     0.12200
H826        H  0.52040883  0.05510129  0.23251706     0.12200
H827        H  0.50312187  0.01323320  0.19798161     0.12200
H828        H  0.45637406  0.95011354  0.26072417     0.12200
C829        C  0.59309262  0.19515348  0.46664540    -0.13900
C830        C  0.62575096  0.21048737  0.46839292     0.08200
C831        C  0.65110435  0.20164745  0.44895912    -0.13900
C832        C  0.64279303  0.17979796  0.42689378    -0.13900
C833        C  0.60908263  0.16695291  0.42419813     0.08200
C834        C  0.58484442  0.17379959  0.44479615    -0.13900
H835        H  0.57318706  0.20120959  0.48147856     0.12200
H836        H  0.67640307  0.21339492  0.44979148     0.12200
H837        H  0.66184766  0.17479839  0.41115855     0.12200
H838        H  0.55884574  0.16372606  0.44336514     0.12200
C839        C  0.66507463  0.12671415  0.25700127    -0.13900
C840        C  0.66464098  0.11843426  0.28504600     0.08200
C841        C  0.69600128  0.11719922  0.29937667    -0.13900
C842        C  0.72678776  0.12578125  0.28647010    -0.13900
C843        C  0.72716044  0.13537120  0.25880490     0.08200
C844        C  0.69621958  0.13489079  0.24390350    -0.13900
H845        H  0.64134169  0.12770860  0.24539744     0.12200
H846        H  0.69674995  0.11071441  0.32093109     0.12200
H847        H  0.75033871  0.12560592  0.29835716     0.12200
H848        H  0.69591183  0.14229137  0.22252814     0.12200
Zn849      Zn  0.52448486  0.06290770  0.84857716     1.49700
Zn850      Zn  0.53535679  0.14208681  0.86157693     1.49400
Zn851      Zn  0.60048866  0.09543601  0.85531775     1.49100
Zn852      Zn  0.55342166  0.11568970  0.80215941     1.49500
O853        O  0.55354062  0.10361860  0.84152771    -1.84700
O854        O  0.48673665  0.07242968  0.87715303    -0.75300
O855        O  0.56742580  0.15829347  0.89027291    -0.75100
O856        O  0.60623093  0.04618470  0.86727587    -0.74600
O857        O  0.49474817  0.12867290  0.88349168    -0.75300
O858        O  0.55366300  0.02407036  0.86332516    -0.74900
O859        O  0.61416449  0.12570840  0.88780211    -0.75500
O860        O  0.60304150  0.11774339  0.78835250    -0.74900
O861        O  0.52472433  0.18195215  0.83758476    -0.75700
O862        O  0.63382075  0.10439878  0.82525388    -0.75000
O863        O  0.53176412  0.16378563  0.79476538    -0.75500
O864        O  0.52869093  0.07775654  0.78094524    -0.75400
O865        O  0.50552970  0.04427121  0.81313815    -0.75200
C866        C  0.47950994  0.10065280  0.88931003     0.83000
C867        C  0.59681882  0.14956598  0.89922034     0.77100
C868        C  0.58537545  0.02099641  0.86955214     0.76000
C869        C  0.63199670  0.11294179  0.80014260     0.76400
C870        C  0.52379224  0.18736713  0.81194322     0.77500
C871        C  0.51105265  0.05134744  0.78800947     0.76600
Zn872      Zn  0.37995396  0.90863625  0.63870732     1.49700
Zn873      Zn  0.44542660  0.86246888  0.62948891     1.49400
Zn874      Zn  0.45619260  0.94110660  0.64432750     1.49100
Zn875      Zn  0.42854595  0.88747973  0.68972871     1.49500
O876        O  0.42740079  0.90024659  0.65076001    -1.84700
O877        O  0.36575986  0.87754457  0.60719806    -0.75300
O878        O  0.49033972  0.87517685  0.61268571    -0.75100
O879        O  0.42772269  0.97887159  0.62791379    -0.74600
O880        O  0.41404234  0.84867033  0.59876171    -0.75300
O881        O  0.37451541  0.95760580  0.62593619    -0.74900
O882        O  0.49740521  0.93145057  0.61923034    -0.75500
O883        O  0.45078158  0.92598367  0.71207583    -0.74900
O884        O  0.45348502  0.82116608  0.65297713    -0.75700
O885        O  0.47212241  0.96090608  0.68017318    -0.75000
O886        O  0.45272892  0.84109412  0.69573714    -0.75500
O887        O  0.37972488  0.88129523  0.70366136    -0.75400
O888        O  0.34676542  0.89973863  0.66943107    -0.75200
C889        C  0.38289964  0.85586893  0.59311762     0.76600
C890        C  0.50738903  0.90281728  0.60910791     0.77100
C891        C  0.39584066  0.98218943  0.62243286     0.76000
C892        C  0.46689142  0.95341147  0.70523098     0.76400
C893        C  0.45783199  0.81682920  0.67853458     0.77500
C894        C  0.35014985  0.88778986  0.69355445     0.76600
Zn895      Zn  0.62546262  0.81656752  0.92825564     1.49700
Zn896      Zn  0.67887359  0.79126074  0.97433458     1.49400
Zn897      Zn  0.65025241  0.86858620  0.97732638     1.49100
Zn898      Zn  0.60088803  0.80528000  0.98834807     1.49500
O899        O  0.63929623  0.82068237  0.96678597    -1.84700
O900        O  0.66333055  0.79222796  0.90648677    -0.75300
O901        O  0.71592563  0.81871936  0.99215615    -0.75100
O902        O  0.64032288  0.89953483  0.94550603    -0.74600
O903        O  0.70003934  0.77518390  0.93885650    -0.75300
O904        O  0.61933989  0.86499399  0.91297382    -0.74900
O905        O  0.70020076  0.87359864  0.98888455    -0.75500
O906        O  0.59014881  0.83849128  0.51781956    -0.74900
O907        O  0.66722619  0.75153273  0.50022324    -0.75700
O908        O  0.62162477  0.88527390  0.51008645    -0.75000
O909        O  0.61156883  0.76161093  0.50760535    -0.75500
O910        O  0.55862642  0.79690134  0.96621765    -0.75400
O911        O  0.57905031  0.79141144  0.92389397    -0.75200
C912        C  0.69155749  0.77798829  0.91376578     0.76600
C913        C  0.72215679  0.85064550  0.99553265     0.77100
C914        C  0.62700959  0.89498432  0.92193961     0.76000
C915        C  0.59956482  0.86875702  0.52429114     0.76400
C916        C  0.63861418  0.74394250  0.51158809     0.77500
C917        C  0.55452415  0.78882217  0.94123152     0.76600
Zn918      Zn  0.83162057  0.68722339  0.74213710     1.49700
Zn919      Zn  0.84823664  0.73567469  0.79384119     1.49400
Zn920      Zn  0.80733732  0.66200812  0.80049001     1.49100
Zn921      Zn  0.88742874  0.66401513  0.78473870     1.49500
O922        O  0.84358342  0.68753840  0.78071548    -1.84700
O923        O  0.83395021  0.73432751  0.72695828    -0.75300
O924        O  0.81168833  0.74507151  0.82333260    -0.75100
O925        O  0.76860404  0.64578755  0.77529024    -0.74600
O926        O  0.84299320  0.76968780  0.76196955    -0.75300
O927        O  0.78393277  0.67060792  0.73622189    -0.74900
O928        O  0.78423229  0.69462175  0.82666926    -0.75500
O929        O  0.88247542  0.62398725  0.80991666    -0.74900
O930        O  0.89698858  0.74501657  0.80817281    -0.75700
O931        O  0.82710536  0.62078510  0.82137551    -0.75000
O932        O  0.92412249  0.69579707  0.79931560    -0.75500
O933        O  0.90435524  0.64459629  0.74885849    -0.75400
O934        O  0.86362668  0.65843499  0.71910879    -0.75200
C935        C  0.83860019  0.76448045  0.73640094     0.76600
C936        C  0.78790295  0.72612681  0.83352647     0.77100
C937        C  0.76228649  0.65385344  0.75050832     0.76000
C938        C  0.85786771  0.60918773  0.82253269     0.76400
C939        C  0.92451403  0.72693783  0.80765474     0.77500
C940        C  0.89214474  0.64392384  0.72468375     0.76600
Zn941      Zn  0.01150490  0.10565517  0.91631269     1.49700
Zn942      Zn  0.08352102  0.14429255  0.90724977     1.49400
Zn943      Zn  0.08396531  0.06480680  0.92449833     1.49100
Zn944      Zn  0.06018910  0.08778557  0.86540082     1.49500
O945        O  0.05952284  0.10054345  0.90371974    -1.84700
O946        O  0.00347982  0.15410598  0.93163299    -0.75300
O947        O  0.12074514  0.14016363  0.93457964    -0.75100
O948        O  0.05131311  0.04285889  0.95099186    -0.74600
O949        O  0.05169622  0.18156295  0.92023895    -0.75300
O950        O  0.00041719  0.06824648  0.94490892    -0.74900
O951        O  0.12443216  0.08472737  0.94565898    -0.75500
O952        O  0.07948571  0.04112606  0.85962559    -0.74900
O953        O  0.10572561  0.15987888  0.87188325    -0.75700
O954        O  0.10068334  0.02590795  0.90006688    -0.75000
O955        O  0.08917542  0.11922167  0.84292489    -0.75500
O956        O  0.01347853  0.09087508  0.84916709    -0.75400
O957        O  0.97840508  0.10332809  0.88373593    -0.75200
C958        C  0.02116628  0.18181747  0.92981314     0.76600
C959        C  0.13497407  0.11577039  0.94773722     0.77100
C960        C  0.01938188  0.04563438  0.95665713     0.76000
C961        C  0.09578279  0.02005004  0.87471284     0.76400
C962        C  0.10532538  0.14696537  0.84792384     0.77500
C963        C  0.98366793  0.09828048  0.85823324     0.76600
Zn964      Zn  0.97258992  0.89383737  0.57960004     1.49700
Zn965      Zn  0.90032907  0.93606309  0.57415146     1.49400
Zn966      Zn  0.90084611  0.85699008  0.59146674     1.49100
Zn967      Zn  0.92786766  0.91333835  0.63260142     1.49500
O968        O  0.92569213  0.90018233  0.59418358    -1.84700
O969        O  0.98190716  0.92946841  0.54946426    -0.75300
O970        O  0.85836735  0.91668714  0.55467609    -0.75100
O971        O  0.93157965  0.81841823  0.57889919    -0.74600
O972        O  0.93163085  0.95680593  0.54576230    -0.75300
O973        O  0.97983103  0.84455230  0.56588560    -0.74900
O974        O  0.86231569  0.86105830  0.56494058    -0.75500
O975        O  0.89837960  0.88316424  0.65670263    -0.74900
O976        O  0.88564364  0.97548820  0.59907186    -0.75700
O977        O  0.87995056  0.84342913  0.62757499    -0.75000
O978        O  0.91188432  0.96136494  0.63784715    -0.75500
O979        O  0.97581128  0.90996842  0.64685767    -0.75400
O980        O  0.00782883  0.89783473  0.61029878    -0.75200
C981        C  0.96286051  0.95251250  0.53837361     0.76600
C982        C  0.84749405  0.88577742  0.55255281     0.77100
C983        C  0.96187290  0.81720659  0.56889705     0.76000
C984        C  0.88116236  0.85599378  0.65164338     0.76400
C985        C  0.89436316  0.98242025  0.62360931     0.77500
C986        C  0.00478577  0.90314874  0.63596460     0.76600
Zn987      Zn  0.15060723  0.86371554  0.76390472     1.49700
Zn988      Zn  0.10375799  0.79822432  0.75623365     1.49400
Zn989      Zn  0.18295405  0.78812209  0.77031788     1.49100
Zn990      Zn  0.12958924  0.81644666  0.81617373     1.49500
O991        O  0.14196591  0.81668596  0.77695695    -1.84700
O992        O  0.11956557  0.87761196  0.73251465    -0.75300
O993        O  0.11678351  0.75450623  0.73790717    -0.75100
O994        O  0.22161263  0.81682256  0.75479149    -0.74600
O995        O  0.08907288  0.82987364  0.72605540    -0.75300
O996        O  0.19938347  0.86935816  0.75053032    -0.74900
O997        O  0.17340080  0.74903896  0.74343658    -0.75500
O998        O  0.16709793  0.79203242  0.83798460    -0.74900
O999        O  0.06315486  0.78795966  0.78001732    -0.75700
O1000       O  0.20090525  0.76902096  0.80590385    -0.75000
O1001       O  0.08209335  0.79387206  0.82275303    -0.75500
O1002       O  0.12673847  0.86557195  0.83026181    -0.75400
O1003       O  0.14221977  0.89703700  0.79423065    -0.75200
C1004       C  0.09708368  0.86050172  0.71934443     0.76600
C1005       C  0.14495149  0.73892907  0.73321848     0.77100
C1006       C  0.22443798  0.84839171  0.74797339     0.76000
C1007       C  0.19330685  0.77411850  0.83098237     0.76400
C1008       C  0.05850930  0.78571803  0.80571154     0.77500
C1009       C  0.13252189  0.89471880  0.81906895     0.76600
Zn1010     Zn  0.30764818  0.65861799  0.94610318     1.49700
Zn1011     Zn  0.34583417  0.73262469  0.95322411     1.49400
Zn1012     Zn  0.33053513  0.68536374  0.50500396     1.49100
Zn1013     Zn  0.38715699  0.66228182  0.96226058     1.49500
O1014       O  0.34273672  0.68486075  0.96638248    -1.84700
O1015       O  0.28652342  0.68920418  0.91729552    -0.75300
O1016       O  0.34237699  0.76661481  0.98474589    -0.75100
O1017       O  0.28337240  0.66720733  0.51024711    -0.74600
O1018       O  0.30817844  0.74169230  0.92489869    -0.75300
O1019       O  0.26825264  0.64316671  0.97078418    -0.74900
O1020       O  0.33273602  0.73298949  0.52073621    -0.75500
O1021       O  0.40344478  0.64247156  0.99814431    -0.74900
O1022       O  0.39375023  0.74266996  0.93814667    -0.75700
O1023       O  0.36246214  0.65640584  0.52782045    -0.75000
O1024       O  0.42327277  0.69523488  0.94838848    -0.75500
O1025       O  0.38390496  0.62270225  0.93631583    -0.75400
O1026       O  0.32807643  0.61654746  0.92759431    -0.75200
C1027       C  0.28770562  0.72142597  0.91219009     0.76600
C1028       C  0.33838646  0.76256666  0.51044242     0.77100
C1029       C  0.26200727  0.65036425  0.99575887     0.76000
C1030       C  0.39093900  0.64172551  0.52226906     0.76400
C1031       C  0.42211966  0.72607529  0.93946388     0.77500
C1032       C  0.35919165  0.60650160  0.92504901     0.76600
Zn1033     Zn  0.09979192  0.29609552  0.74113669     1.49700
Zn1034     Zn  0.12430743  0.31415107  0.68050199     1.49400
Zn1035     Zn  0.14471642  0.36206136  0.73313147     1.49100
Zn1036     Zn  0.17856265  0.28751139  0.72543461     1.49500
O1037       O  0.13704414  0.31509469  0.71968774    -1.84700
O1038       O  0.05821915  0.28786797  0.71813649    -0.75300
O1039       O  0.12199808  0.36323457  0.66626852    -0.75100
O1040       O  0.11392547  0.37543157  0.76518371    -0.74600
O1041       O  0.07615150  0.29280907  0.67497127    -0.75300
O1042       O  0.08590897  0.32648308  0.77256928    -0.74900
O1043       O  0.13540320  0.39475036  0.70282800    -0.75500
O1044       O  0.21664937  0.31674543  0.74021049    -0.74900
O1045       O  0.16114375  0.28906869  0.65791295    -0.75700
O1046       O  0.19381979  0.36888867  0.74523096    -0.75000
O1047       O  0.19688462  0.26938959  0.68978903    -0.75500
O1048       O  0.17046950  0.24844084  0.75224137    -0.75400
O1049       O  0.11364993  0.25179111  0.75805442    -0.75200
C1050       C  0.05269975  0.28595150  0.69254207     0.76600
C1051       C  0.12678612  0.39238383  0.67776930     0.77100
C1052       C  0.09275219  0.35746431  0.77906928     0.76000
C1053       C  0.21930399  0.34832669  0.74691392     0.76400
C1054       C  0.18857591  0.27299814  0.66474324     0.77500
C1055       C  0.14244128  0.23731153  0.76254250     0.76600
Zn1056     Zn  0.33302475  0.13948635  0.51752567     1.49700
Zn1057     Zn  0.30259651  0.21632109  0.52245136     1.49400
Zn1058     Zn  0.35342147  0.18772715  0.56949198     1.49100
Zn1059     Zn  0.38132966  0.20288084  0.51047142     1.49500
O1060       O  0.34217295  0.18657956  0.53038654    -1.84700
O1061       O  0.28370463  0.13311977  0.50638071    -0.75300
O1062       O  0.28188102  0.23477628  0.55751216    -0.75100
O1063       O  0.36062606  0.13885788  0.58290272    -0.74600
O1064       O  0.26482461  0.18715875  0.50685638    -0.75300
O1065       O  0.34331846  0.10649752  0.54779391    -0.74900
O1066       O  0.31294525  0.20919803  0.59001491    -0.75500
O1067       O  0.41575688  0.22571704  0.53492372    -0.74900
O1068       O  0.31304991  0.25361741  0.99364598    -0.75700
O1069       O  0.39797622  0.21481078  0.57733879    -0.75000
O1070       O  0.36607084  0.23682746  0.98271282    -0.75500
O1071       O  0.40427240  0.16526323  0.98919300    -0.75400
O1072       O  0.36335626  0.12560232  0.98521551    -0.75200
C1073       C  0.26001164  0.15518302  0.00229357     0.76600
C1074       C  0.28710000  0.22742367  0.58263374     0.77100
C1075       C  0.35492096  0.10947450  0.57204325     0.76000
C1076       C  0.41956702  0.22818956  0.56071219     0.76400
C1077       C  0.33965051  0.25537833  0.97830597     0.77500
C1078       C  0.39269140  0.13766716  0.97849910     0.76600
Zn1079     Zn  0.50806073  0.60714346  0.66554249     1.49700
Zn1080     Zn  0.58124015  0.56945236  0.67623932     1.49400
Zn1081     Zn  0.55902012  0.59108882  0.61592445     1.49100
Zn1082     Zn  0.57968712  0.64866962  0.65784641     1.49500
O1083       O  0.55682279  0.60412649  0.65423407    -1.84700
O1084       O  0.49684195  0.56967682  0.69393698    -0.75300
O1085       O  0.59749368  0.52922506  0.65263702    -0.75100
O1086       O  0.51262912  0.59112284  0.59895529    -0.74600
O1087       O  0.54896619  0.54907506  0.70391006    -0.75300
O1088       O  0.47606656  0.60319333  0.63255697    -0.74900
O1089       O  0.58012083  0.54512025  0.61121407    -0.75500
O1090       O  0.59854282  0.66652995  0.62168469    -0.74900
O1091       O  0.62242177  0.59008775  0.69615072    -0.75700
O1092       O  0.58607638  0.62404806  0.59304555    -0.75000
O1093       O  0.62000501  0.64483060  0.68283829    -0.75500
O1094       O  0.54685583  0.68392511  0.67309276    -0.75400
O1095       O  0.49807249  0.65515103  0.68059157    -0.75200
C1096       C  0.51650433  0.54978528  0.70778107     0.76600
C1097       C  0.59458351  0.52355698  0.62703166     0.77100
C1098       C  0.48228328  0.59755041  0.60729755     0.76000
C1099       C  0.59935176  0.65336286  0.59779203     0.76400
C1100       C  0.63441751  0.62070884  0.69625620     0.77500
C1101       C  0.51555074  0.68306691  0.68099148     0.76600
Zn1102     Zn  0.43985515  0.35911842  0.85970577     1.49700
Zn1103     Zn  0.45442402  0.43646178  0.84734485     1.49400
Zn1104     Zn  0.42492389  0.38594006  0.80051223     1.49100
Zn1105     Zn  0.37658975  0.40709051  0.85287184     1.49500
O1106       O  0.42360235  0.39775164  0.83962578    -1.84700
O1107       O  0.47321787  0.37376951  0.88783140    -0.75300
O1108       O  0.47281951  0.45643536  0.81212273    -0.75100
O1109       O  0.45232753  0.34084535  0.79296104    -0.74600
O1110       O  0.49268428  0.42506134  0.87490498    -0.75300
O1111       O  0.46345106  0.32544893  0.83582995    -0.74900
O1112       O  0.44603833  0.42639621  0.77953538    -0.75500
O1113       O  0.34375720  0.40014254  0.82163021    -0.74900
O1114       O  0.42650962  0.47441550  0.86438540    -0.75700
O1115       O  0.37599026  0.37964326  0.78740375    -0.75000
O1116       O  0.37240642  0.45583789  0.86691261    -0.75500
O1117       O  0.36113008  0.37404899  0.88342176    -0.75400
O1118       O  0.40259984  0.33503280  0.87972986    -0.75200
C1119       C  0.49337575  0.39922665  0.89103309     0.76600
C1120       C  0.46510685  0.45156172  0.78703513     0.77100
C1121       C  0.46622242  0.32040103  0.81024322     0.76000
C1122       C  0.34673962  0.38753659  0.79762921     0.76400
C1123       C  0.39499062  0.47921237  0.87068116     0.77500
C1124       C  0.37403650  0.34490013  0.88977331     0.76600
Zn1125     Zn  0.80518188  0.16157577  0.69739845     1.49700
Zn1126     Zn  0.84207245  0.23535009  0.70711641     1.49400
Zn1127     Zn  0.82711663  0.18419558  0.75766371     1.49100
Zn1128     Zn  0.88440362  0.16512435  0.71508987     1.49500
O1129       O  0.83958166  0.18680963  0.71907516    -1.84700
O1130       O  0.78439359  0.19286660  0.66934362    -0.75300
O1131       O  0.83694274  0.26735216  0.73979493    -0.75100
O1132       O  0.78102288  0.16285437  0.76257181    -0.74600
O1133       O  0.80452546  0.24542807  0.67858869    -0.75300
O1134       O  0.76513675  0.14549679  0.72111255    -0.74900
O1135       O  0.82673887  0.23110052  0.77406541    -0.75500
O1136       O  0.90257968  0.14650099  0.75081197    -0.74900
O1137       O  0.89018728  0.24653326  0.69225471    -0.75700
O1138       O  0.86066782  0.15696732  0.78046773    -0.75000
O1139       O  0.91931853  0.19805683  0.69977193    -0.75500
O1140       O  0.88116159  0.12473031  0.69040435    -0.75400
O1141       O  0.82628002  0.12029302  0.67795991    -0.75200
C1142       C  0.78477680  0.22525316  0.66506377     0.76600
C1143       C  0.83192850  0.26147701  0.76517159     0.77100
C1144       C  0.75945010  0.14840879  0.74671463     0.76000
C1145       C  0.89011678  0.14443652  0.77488031     0.76400
C1146       C  0.91826788  0.22931901  0.69185439     0.77500
C1147       C  0.85724058  0.10930029  0.67755367     0.76600
Zn1148     Zn  0.59330616  0.30018126  0.51357073     1.49700
Zn1149     Zn  0.67206821  0.28578087  0.52457808     1.49400
Zn1150     Zn  0.64311450  0.36313998  0.51787051     1.49100
Zn1151     Zn  0.62255888  0.31756332  0.57205654     1.49500
O1152       O  0.63321156  0.31678841  0.53238909    -1.84700
O1153       O  0.60389004  0.25801802  0.99242990    -0.75300
O1154       O  0.71032007  0.31261253  0.50665162    -0.75100
O1155       O  0.61130441  0.37795552  0.98663132    -0.74600
O1156       O  0.65933353  0.24626483  0.99850296    -0.75300
O1157       O  0.57439639  0.33441755  0.98762341    -0.74900
O1158       O  0.69191543  0.36676900  0.50426290    -0.75500
O1159       O  0.62119627  0.36724613  0.58499880    -0.74900
O1160       O  0.69215180  0.26804432  0.56016373    -0.75700
O1161       O  0.63648978  0.39724007  0.54807470    -0.75000
O1162       O  0.66144479  0.29408695  0.59282527    -0.75500
O1163       O  0.57487314  0.29568891  0.58115107    -0.75400
O1164       O  0.55528688  0.28933632  0.53877677    -0.75200
C1165       C  0.63023086  0.23949842  0.98765336     0.76600
C1166       C  0.71519575  0.34414306  0.00039148     0.77100
C1167       C  0.58383908  0.36345067  0.97828406     0.76000
C1168       C  0.62746833  0.39588485  0.57314372     0.76400
C1169       C  0.68673955  0.27521493  0.58532082     0.77500
C1170       C  0.55079430  0.28783124  0.56444609     0.76600
Zn1171     Zn  0.06038111  0.58727492  0.63195826     1.49700
Zn1172     Zn  0.01073884  0.60554852  0.58171152     1.49400
Zn1173     Zn  0.08371153  0.64294746  0.59024251     1.49100
Zn1174     Zn  0.08233058  0.56348892  0.57209254     1.49500
O1175       O  0.05900235  0.59966271  0.59358539    -1.84700
O1176       O  0.01406406  0.59050841  0.64875244    -0.75300
O1177       O  0.00309904  0.65460021  0.56738543    -0.75100
O1178       O  0.10565281  0.65899745  0.62550948    -0.74600
O1179       O  0.97827288  0.60274200  0.61472301    -0.75300
O1180       O  0.09001236  0.61824223  0.65462292    -0.74900
O1181       O  0.05264552  0.68064037  0.57707733    -0.75500
O1182       O  0.12352647  0.58261333  0.55084758    -0.74900
O1183       O  0.99834416  0.56868268  0.55283675    -0.75700
O1184       O  0.12200458  0.63744611  0.56414198    -0.75000
O1185       O  0.04868590  0.54249542  0.54589611    -0.75500
O1186       O  0.09819185  0.52383474  0.59634629    -0.75400
O1187       O  0.07850925  0.54035244  0.63700736    -0.75200
C1188       C  0.98405308  0.59768323  0.64013048     0.76600
C1189       C  0.02164894  0.68180725  0.56863545     0.77100
C1190       C  0.10577157  0.64617910  0.64946376     0.76000
C1191       C  0.13580611  0.61313537  0.55055576     0.76400
C1192       C  0.01667843  0.54577709  0.54073550     0.77500
C1193       C  0.09360755  0.51845062  0.62183359     0.76600
Zn1194     Zn  0.92320869  0.41103770  0.86731482     1.49700
Zn1195     Zn  0.89497606  0.43344726  0.92574545     1.49400
Zn1196     Zn  0.89762040  0.35419105  0.90883635     1.49100
Zn1197     Zn  0.96829302  0.39223634  0.92006366     1.49500
O1198       O  0.92128678  0.39797099  0.90577816    -1.84700
O1199       O  0.90796454  0.45959673  0.86229855    -0.75300
O1200       O  0.85249486  0.41291495  0.94435090    -0.75100
O1201       O  0.87713677  0.34006337  0.87305379    -0.74600
O1202       O  0.88062590  0.47328776  0.90080203    -0.75300
O1203       O  0.89295338  0.38079722  0.84378908    -0.74900
O1204       O  0.85855586  0.35721563  0.93487831    -0.75500
O1205       O  0.97636210  0.34348086  0.93470299    -0.74900
O1206       O  0.92595535  0.45465371  0.95442989    -0.75700
O1207       O  0.92887879  0.31634444  0.92144456    -0.75000
O1208       O  0.97694925  0.42881929  0.94948706    -0.75500
O1209       O  0.00342132  0.39535728  0.88898159    -0.75400
O1210       O  0.97111471  0.40673268  0.85252990    -0.75200
C1211       C  0.89024771  0.48063757  0.87651192     0.76600
C1212       C  0.84241789  0.38168790  0.94652859     0.77100
C1213       C  0.87691961  0.35295424  0.84911849     0.76000
C1214       C  0.95901358  0.31576478  0.93164386     0.76400
C1215       C  0.95759573  0.45132545  0.96102882     0.77500
C1216       C  0.00017643  0.39997150  0.86325040     0.76600
C1217       C  0.02142041  0.49604235  0.00802366    -0.13900
C1218       C  0.00100026  0.52170978  0.52050040     0.08200
C1219       C  0.96585733  0.52341530  0.51374267    -0.13900
C1220       C  0.95164963  0.50027430  0.49476314    -0.13900
C1221       C  0.97223899  0.47484289  0.98211969     0.08200
C1222       C  0.00725450  0.47296144  0.98913576    -0.13900
H1223       H  0.04856507  0.49373275  0.01279635     0.12200
H1224       H  0.94934812  0.54267757  0.52304247     0.12200
H1225       H  0.92454219  0.50251052  0.48984350     0.12200
H1226       H  0.02389700  0.45380502  0.97984390     0.12200
C1227       C  0.77269330  0.32910248  0.48077784    -0.13900
C1228       C  0.74849337  0.35442211  0.98804809     0.08200
C1229       C  0.75619870  0.38929215  0.98283991    -0.13900
C1230       C  0.78722682  0.39850808  0.97009971    -0.13900
C1231       C  0.81093117  0.37298833  0.96217990     0.08200
C1232       C  0.80344403  0.33825049  0.96795259    -0.13900
H1233       H  0.76764965  0.30203541  0.48453540     0.12200
H1234       H  0.73810057  0.40941972  0.98831654     0.12200
H1235       H  0.79224864  0.42545657  0.96583879     0.12200
H1236       H  0.82120729  0.31792270  0.96223188     0.12200
C1237       C  0.82679997  0.28339070  0.81292964    -0.13900
C1238       C  0.83549256  0.28957563  0.78543025     0.08200
C1239       C  0.85316689  0.32007066  0.77869164    -0.13900
C1240       C  0.86482392  0.34218272  0.79936688    -0.13900
C1241       C  0.85895785  0.33408041  0.82704097     0.08200
C1242       C  0.83844192  0.30536597  0.83350424    -0.13900
H1243       H  0.81285662  0.26032568  0.81876951     0.12200
H1244       H  0.86023412  0.32553025  0.75767708     0.12200
H1245       H  0.88029558  0.36433521  0.79375634     0.12200
H1246       H  0.83290347  0.29877224  0.85460387     0.12200
C1247       C  0.74420701  0.27090445  0.64806454    -0.13900
C1248       C  0.76091451  0.23913221  0.64420654     0.08200
C1249       C  0.75269398  0.21918317  0.62108177    -0.13900
C1250       C  0.72856085  0.23088660  0.60200527    -0.13900
C1251       C  0.71130976  0.26229652  0.60607983     0.08200
C1252       C  0.71925445  0.28217048  0.62934578    -0.13900
H1253       H  0.74979031  0.28654941  0.66589188     0.12200
H1254       H  0.76511625  0.19451671  0.61769142     0.12200
H1255       H  0.72306100  0.21516524  0.58420141     0.12200
H1256       H  0.70662149  0.30671573  0.63277586     0.12200
C1257       C  0.50370934  0.38413287  0.93917059    -0.13900
C1258       C  0.51676392  0.39782357  0.91471114     0.08200
C1259       C  0.55218547  0.40501831  0.91260448    -0.13900
C1260       C  0.57451708  0.39603723  0.93415131    -0.13900
C1261       C  0.56139071  0.37982182  0.95773459     0.08200
C1262       C  0.52571898  0.37523129  0.96038845    -0.13900
H1263       H  0.47644069  0.37868888  0.94135248     0.12200
H1264       H  0.56275828  0.41536162  0.89379144     0.12200
H1265       H  0.60202140  0.39965816  0.93168079     0.12200
H1266       H  0.51494130  0.36319491  0.97850255     0.12200
C1267       C  0.61608077  0.49083830  0.58690160    -0.13900
C1268       C  0.60748321  0.49129062  0.61481031     0.08200
C1269       C  0.60842123  0.46038207  0.62976201    -0.13900
C1270       C  0.61590336  0.42918148  0.61650213    -0.13900
C1271       C  0.62302439  0.42865780  0.58823595     0.08200
C1272       C  0.62394881  0.45996868  0.57381220    -0.13900
H1273       H  0.61587681  0.51437388  0.57495006     0.12200
H1274       H  0.60179746  0.46012563  0.65130980     0.12200
H1275       H  0.61522441  0.40545406  0.62817714     0.12200
H1276       H  0.62950714  0.46058725  0.55208105     0.12200
C1277       C  0.47024345  0.50949896  0.72440859    -0.13900
C1278       C  0.50196043  0.52615560  0.72857858     0.08200
C1279       C  0.52134340  0.51800117  0.75196578    -0.13900
C1280       C  0.50928486  0.49381840  0.77088725    -0.13900
C1281       C  0.47803416  0.47646078  0.76645632     0.08200
C1282       C  0.45858752  0.48449874  0.74302254    -0.13900
H1283       H  0.45500728  0.51508148  0.70638956     0.12200
H1284       H  0.54591964  0.53042042  0.75563109     0.12200
H1285       H  0.52468968  0.48829338  0.78883057     0.12200
H1286       H  0.43416145  0.47181741  0.73932488     0.12200
C1287       C  0.45548378  0.28076146  0.56090918    -0.13900
C1288       C  0.45004254  0.24720851  0.57061140     0.08200
C1289       C  0.47702963  0.23009200  0.58419501    -0.13900
C1290       C  0.51000703  0.24517537  0.58554593    -0.13900
C1291       C  0.51600049  0.27755656  0.57352655     0.08200
C1292       C  0.48804163  0.29584630  0.56250881    -0.13900
H1293       H  0.43517205  0.29424780  0.55011031     0.12200
H1294       H  0.47350384  0.20388896  0.59134896     0.12200
H1295       H  0.53134651  0.23022427  0.59347745     0.12200
H1296       H  0.49217901  0.32057659  0.55269971     0.12200
C1297       C  0.35706113  0.26487257  0.93044845    -0.13900
C1298       C  0.34074675  0.27782826  0.95393136     0.08200
C1299       C  0.32990437  0.31243430  0.95431750    -0.13900
C1300       C  0.33823439  0.33441793  0.93230706    -0.13900
C1301       C  0.35727815  0.32176104  0.90985939     0.08200
C1302       C  0.36510156  0.28646871  0.90869743    -0.13900
H1303       H  0.36514557  0.23813460  0.92945645     0.12200
H1304       H  0.31724230  0.32292608  0.97225560     0.12200
H1305       H  0.33196646  0.36158260  0.93370163     0.12200
H1306       H  0.37926788  0.27583087  0.89151908     0.12200
C1307       C  0.98949315  0.29537709  0.69062924    -0.13900
C1308       C  0.01810186  0.27481246  0.68398254     0.08200
C1309       C  0.01281230  0.24071528  0.67544727    -0.13900
C1310       C  0.97961676  0.22650251  0.67581400    -0.13900
C1311       C  0.95116575  0.24635405  0.68436395     0.08200
C1312       C  0.95620580  0.28142645  0.69041469    -0.13900
H1313       H  0.99317414  0.32157872  0.69777682     0.12200
H1314       H  0.03461666  0.22425735  0.67079030     0.12200
H1315       H  0.97649472  0.19938381  0.67108251     0.12200
H1316       H  0.93489737  0.29724802  0.69735394     0.12200
C1317       C  0.25389908  0.38978353  0.77474609    -0.13900
C1318       C  0.25258490  0.36095113  0.75738656     0.08200
C1319       C  0.28314362  0.34302023  0.75134384    -0.13900
C1320       C  0.31425578  0.35294527  0.76327959    -0.13900
C1321       C  0.31517465  0.38050053  0.78190049     0.08200
C1322       C  0.28488715  0.39924176  0.78715564    -0.13900
H1323       H  0.23071342  0.40407077  0.77968510     0.12200
H1324       H  0.28286125  0.32087967  0.73780737     0.12200
H1325       H  0.33724401  0.33802613  0.75896983     0.12200
H1326       H  0.28502945  0.42072162  0.80134765     0.12200
C1327       C  0.24328128  0.24297779  0.65112310    -0.13900
C1328       C  0.21255618  0.25966879  0.64341327     0.08200
C1329       C  0.20654607  0.26561952  0.61543896    -0.13900
C1330       C  0.23088628  0.25554024  0.59574357    -0.13900
C1331       C  0.26180847  0.23924794  0.60355030     0.08200
C1332       C  0.26752845  0.23288440  0.63147909    -0.13900
H1333       H  0.24891162  0.23806126  0.67247257     0.12200
H1334       H  0.18327864  0.27853346  0.60877289     0.12200
H1335       H  0.22542269  0.26048845  0.57437178     0.12200
H1336       H  0.29086030  0.22016194  0.63823742     0.12200
C1337       C  0.03327701  0.41381041  0.82066557    -0.13900
C1338       C  0.02978022  0.39430019  0.84476832     0.08200
C1339       C  0.05074238  0.36516329  0.84847653    -0.13900
C1340       C  0.07262439  0.35404573  0.82745362    -0.13900
C1341       C  0.07480735  0.37258896  0.80282868     0.08200
C1342       C  0.05611760  0.40335288  0.80002654    -0.13900
H1343       H  0.01713611  0.43620139  0.81727911     0.12200
H1344       H  0.04812666  0.34941565  0.86667804     0.12200
H1345       H  0.08681681  0.33018777  0.82995513     0.12200
H1346       H  0.05726361  0.41785768  0.78109888     0.12200
C1347       C  0.11641397  0.42462721  0.63378051    -0.13900
C1348       C  0.12130338  0.42460750  0.66232117     0.08200
C1349       C  0.11957921  0.45594409  0.67666137    -0.13900
C1350       C  0.11169976  0.48636925  0.66310400    -0.13900
C1351       C  0.10564750  0.48639418  0.63480072     0.08200
C1352       C  0.10887409  0.45545721  0.62004165    -0.13900
H1353       H  0.11781840  0.40083100  0.62221194     0.12200
H1354       H  0.12330275  0.45692980  0.69861983     0.12200
H1355       H  0.10973315  0.50992090  0.67496034     0.12200
H1356       H  0.10426261  0.45489614  0.59818489     0.12200
C1357       C  0.18830568  0.64829807  0.54556941    -0.13900
C1358       C  0.16778301  0.62129789  0.53561668     0.08200
C1359       C  0.17826460  0.60338500  0.51199991    -0.13900
C1360       C  0.20875153  0.61294754  0.49838903    -0.13900
C1361       C  0.22926624  0.63992429  0.50871425     0.08200
C1362       C  0.21863559  0.65734560  0.53242509    -0.13900
H1363       H  0.18109498  0.66237593  0.56387668     0.12200
H1364       H  0.16276428  0.58249066  0.50395783     0.12200
H1365       H  0.21650102  0.59906065  0.48014765     0.12200
H1366       H  0.23370543  0.67833058  0.04085347     0.12200
C1367       C  0.40168348  0.62952101  0.57207772    -0.13900
C1368       C  0.41066796  0.62469649  0.54440157     0.08200
C1369       C  0.44047420  0.60576466  0.53809561    -0.13900
C1370       C  0.46223997  0.59429152  0.55886913    -0.13900
C1371       C  0.45486932  0.60165642  0.58647384     0.08200
C1372       C  0.42363697  0.61814028  0.59295085    -0.13900
H1373       H  0.37869720  0.64378259  0.57760372     0.12200
H1374       H  0.44785834  0.60111648  0.51701986     0.12200
H1375       H  0.48592909  0.58136293  0.55313742     0.12200
H1376       H  0.41722446  0.62421943  0.61399416     0.12200
C1377       C  0.34170763  0.55044830  0.90331571    -0.13900
C1378       C  0.36726433  0.57499887  0.90928242     0.08200
C1379       C  0.40142951  0.56842696  0.90132784    -0.13900
C1380       C  0.41010118  0.53767770  0.88829188    -0.13900
C1381       C  0.38486872  0.51257129  0.88302411     0.08200
C1382       C  0.35046059  0.51940664  0.89037923    -0.13900
H1383       H  0.31517387  0.55480705  0.90931249     0.12200
H1384       H  0.42167177  0.58693471  0.90547517     0.12200
H1385       H  0.43681206  0.53336755  0.88279396     0.12200
H1386       H  0.33041852  0.50059321  0.88652804     0.12200
C1387       C  0.12112263  0.68232976  0.71992969    -0.13900
C1388       C  0.14364046  0.70965978  0.71428442     0.08200
C1389       C  0.15768474  0.71303291  0.68794949    -0.13900
C1390       C  0.14694353  0.69102562  0.66688801    -0.13900
C1391       C  0.12250952  0.66505521  0.67212059     0.08200
C1392       C  0.11105230  0.65984883  0.69912021    -0.13900
H1393       H  0.10958962  0.67977770  0.74004682     0.12200
H1394       H  0.17455690  0.73446547  0.68314437     0.12200
H1395       H  0.15632266  0.69544941  0.64629041     0.12200
H1396       H  0.09219399  0.64009545  0.70377803     0.12200
C1397       C  0.23632591  0.73036132  0.84686939    -0.13900
C1398       C  0.21641062  0.75989432  0.85226484     0.08200
C1399       C  0.22049044  0.77694771  0.87746793    -0.13900
C1400       C  0.24450286  0.76505736  0.89666501    -0.13900
C1401       C  0.26407391  0.73535456  0.89130941     0.08200
C1402       C  0.25950302  0.71788049  0.86640569    -0.13900
H1403       H  0.23379596  0.71678232  0.82759062     0.12200
H1404       H  0.20573029  0.79996147  0.88204143     0.12200
H1405       H  0.24733187  0.77865044  0.91591211     0.12200
H1406       H  0.27422509  0.69480069  0.86194039     0.12200
C1407       C  0.95599943  0.75340987  0.56140267    -0.13900
C1408       C  0.97706440  0.78293399  0.56260841     0.08200
C1409       C  0.01299283  0.77869434  0.56146069    -0.13900
C1410       C  0.02752405  0.74564071  0.56146121    -0.13900
C1411       C  0.00645352  0.71607546  0.56234086     0.08200
C1412       C  0.97053133  0.72034457  0.56111445    -0.13900
H1413       H  0.92819904  0.75580721  0.56206128     0.12200
H1414       H  0.02994672  0.80085598  0.56238067     0.12200
H1415       H  0.05532126  0.74329869  0.56223165     0.12200
H1416       H  0.95356019  0.69818227  0.56174637     0.12200
C1417       C  0.85600511  0.03461345  0.62722701    -0.13900
C1418       C  0.88460911  0.01553011  0.63628485     0.08200
C1419       C  0.90396627  0.02781877  0.65847561    -0.13900
C1420       C  0.89501837  0.05842372  0.67144397    -0.13900
C1421       C  0.86616698  0.07732873  0.66284314     0.08200
C1422       C  0.84657703  0.06519193  0.64066300    -0.13900
H1423       H  0.84062455  0.02555840  0.61019602     0.12200
H1424       H  0.92624159  0.01377724  0.66583464     0.12200
H1425       H  0.91048043  0.06701239  0.68859385     0.12200
H1426       H  0.82426393  0.07942354  0.63364192     0.12200
C1427       C  0.05636980  0.86970172  0.64996440    -0.13900
C1428       C  0.03450906  0.89804448  0.65424737     0.08200
C1429       C  0.03713071  0.91686756  0.67877785    -0.13900
C1430       C  0.05984785  0.90626750  0.69934305    -0.13900
C1431       C  0.07932710  0.87612377  0.69591259     0.08200
C1432       C  0.07818639  0.85846094  0.67086094    -0.13900
H1433       H  0.05444959  0.85449624  0.63141345     0.12200
H1434       H  0.02030378  0.93865759  0.68257879     0.12200
H1435       H  0.06028912  0.92005216  0.71863758     0.12200
H1436       H  0.09306451  0.83508757  0.66794399     0.12200
C1437       C  0.96938151  0.21907065  0.93808937    -0.13900
C1438       C  0.00537651  0.21554159  0.93692436     0.08200
C1439       C  0.02589735  0.24541527  0.93871384    -0.13900
C1440       C  0.01074354  0.27819063  0.93936347    -0.13900
C1441       C  0.97476204  0.28177493  0.93792144     0.08200
C1442       C  0.95424184  0.25183387  0.93842148    -0.13900
H1443       H  0.95284349  0.19662659  0.93680515     0.12200
H1444       H  0.05374168  0.24356463  0.93809868     0.12200
H1445       H  0.02727988  0.30069229  0.93903013     0.12200
H1446       H  0.92641380  0.25370501  0.93754099     0.12200
C1447       C  0.90342175  0.13415477  0.82459595    -0.13900
C1448       C  0.91075379  0.12801018  0.79678189     0.08200
C1449       C  0.93947074  0.10773532  0.78996118    -0.13900
C1450       C  0.96162065  0.09573879  0.81030271    -0.13900
C1451       C  0.95580495  0.10395949  0.83799191     0.08200
C1452       C  0.92581891  0.12231310  0.84503640    -0.13900
H1453       H  0.88135992  0.14960183  0.83048534     0.12200
H1454       H  0.94552164  0.10208893  0.76877059     0.12200
H1455       H  0.98433205  0.08143906  0.80414010     0.12200
H1456       H  0.92069634  0.12922292  0.86614001     0.12200
C1457       C  0.10965802  0.95697154  0.87630475    -0.13900
C1458       C  0.10897921  0.98832954  0.86197713     0.08200
C1459       C  0.11869592  0.98899481  0.83432962    -0.13900
C1460       C  0.12772226  0.95870142  0.82085924    -0.13900
C1461       C  0.12670597  0.92690483  0.83462619     0.08200
C1462       C  0.11818806  0.92635011  0.86264043    -0.13900
H1463       H  0.10214289  0.95594659  0.89765523     0.12200
H1464       H  0.11867526  0.01297364  0.82294089     0.12200
H1465       H  0.13432095  0.96013431  0.79933631     0.12200
H1466       H  0.11733572  0.90223570  0.87379756     0.12200
C1467       C  0.96937570  0.02256972  0.98407141    -0.13900
C1468       C  0.00451920  0.02156565  0.97723484     0.08200
C1469       C  0.02567571  0.99691491  0.49015976    -0.13900
C1470       C  0.01215606  0.97417294  0.50964514    -0.13900
C1471       C  0.97711780  0.97547653  0.51676425     0.08200
C1472       C  0.95585039  0.99982871  0.00360332    -0.13900
H1473       H  0.95232380  0.04102560  0.97443196     0.12200
H1474       H  0.05287622  0.99523883  0.48533966     0.12200
H1475       H  0.02927314  0.95583101  0.51935080     0.12200
H1476       H  0.92868061  0.00152961  0.00852412     0.12200
C1477       C  0.14486513  0.19281117  0.82990728    -0.13900
C1478       C  0.12202324  0.16537489  0.82501813     0.08200
C1479       C  0.11209739  0.15801050  0.79795011    -0.13900
C1480       C  0.12185268  0.17982757  0.77662311    -0.13900
C1481       C  0.14251645  0.20863975  0.78190760     0.08200
C1482       C  0.15527658  0.21417721  0.80838090    -0.13900
H1483       H  0.15309287  0.19890676  0.85052572     0.12200
H1484       H  0.09456346  0.13700730  0.79351598     0.12200
H1485       H  0.11129986  0.17563820  0.75636812     0.12200
H1486       H  0.17066403  0.23680907  0.81284574     0.12200
C1487       C  0.17131178  0.15916568  0.97138925    -0.13900
C1488       C  0.16489531  0.12443149  0.96499773     0.08200
C1489       C  0.18862895  0.09918305  0.97330833    -0.13900
C1490       C  0.21928172  0.10889251  0.98631418    -0.13900
C1491       C  0.22640384  0.14393635  0.99132333     0.08200
C1492       C  0.20161629  0.16878463  0.98442899    -0.13900
H1493       H  0.15328884  0.17920574  0.96559638     0.12200
H1494       H  0.18422836  0.07221036  0.96871072     0.12200
H1495       H  0.23779701  0.08912734  0.99167738     0.12200
H1496       H  0.20606822  0.19594224  0.98825462     0.12200
C1497       C  0.96254933  0.77885219  0.81430401    -0.13900
C1498       C  0.95828817  0.74279938  0.81472469     0.08200
C1499       C  0.98774762  0.72190128  0.81767913    -0.13900
C1500       C  0.02075740  0.73648727  0.81779172    -0.13900
C1501       C  0.02499132  0.77220225  0.81498573     0.08200
C1502       C  0.99566949  0.79338710  0.81411751    -0.13900
H1503       H  0.94048802  0.79568303  0.81188335     0.12200
H1504       H  0.98543500  0.69406726  0.81812465     0.12200
H1505       H  0.04304895  0.71965298  0.81788128     0.12200
H1506       H  0.99843531  0.82096822  0.81132746     0.12200
C1507       C  0.71688814  0.66532375  0.71607005    -0.13900
C1508       C  0.72898722  0.64491184  0.73774321     0.08200
C1509       C  0.70923939  0.61654398  0.74643527    -0.13900
C1510       C  0.67832303  0.60828190  0.73302702    -0.13900
C1511       C  0.66644457  0.62883149  0.71126438     0.08200
C1512       C  0.68593551  0.65757554  0.70317518    -0.13900
H1513       H  0.73134973  0.68755624  0.70908610     0.12200
H1514       H  0.71803608  0.60044622  0.76313296     0.12200
H1515       H  0.66368768  0.58603036  0.73970118     0.12200
H1516       H  0.67760128  0.67383729  0.68641550     0.12200
C1517       C  0.84224935  0.80928171  0.66833833    -0.13900
C1518       C  0.86366484  0.83747992  0.67423431     0.08200
C1519       C  0.87098970  0.84524780  0.70178063    -0.13900
C1520       C  0.86004130  0.82311249  0.72274594    -0.13900
C1521       C  0.84161022  0.79297470  0.71640689     0.08200
C1522       C  0.83128806  0.78734236  0.68918284    -0.13900
H1523       H  0.83553047  0.80297863  0.64741080     0.12200
H1524       H  0.88712901  0.86706596  0.70698847     0.12200
H1525       H  0.86827565  0.82816651  0.74353828     0.12200
H1526       H  0.81658415  0.76462680  0.68367781     0.12200
C1527       C  0.94123338  0.60710523  0.70903931    -0.13900
C1528       C  0.91218872  0.62705853  0.70258105     0.08200
C1529       C  0.90416577  0.63279882  0.67485900    -0.13900
C1530       C  0.92620376  0.62096294  0.65412467    -0.13900
C1531       C  0.95656032  0.60309093  0.66077831     0.08200
C1532       C  0.96307363  0.59517527  0.68840173    -0.13900
H1533       H  0.94787821  0.60180321  0.73014984     0.12200
H1534       H  0.88183924  0.64796711  0.66922722     0.12200
H1535       H  0.92053263  0.62758460  0.63307305     0.12200
H1536       H  0.98610087  0.58123546  0.69426353     0.12200
C1537       C  0.84370035  0.56386001  0.85804739    -0.13900
C1538       C  0.86578319  0.57713053  0.83773988     0.08200
C1539       C  0.89599339  0.55891899  0.83118624    -0.13900
C1540       C  0.90367217  0.52788302  0.84404858    -0.13900
C1541       C  0.88169456  0.51436232  0.86418594     0.08200
C1542       C  0.85184064  0.53283374  0.87144592    -0.13900
H1543       H  0.82028333  0.57741935  0.86353270     0.12200
H1544       H  0.91351498  0.56827112  0.81557736     0.12200
H1545       H  0.92699943  0.51438876  0.83817673     0.12200
H1546       H  0.83446102  0.52287121  0.88690595     0.12200
C1547       C  0.51702365  0.74063230  0.92536173    -0.13900
C1548       C  0.52054621  0.77524017  0.93326722     0.08200
C1549       C  0.49090057  0.79460548  0.93919009    -0.13900
C1550       C  0.45832074  0.77920824  0.93859177    -0.13900
C1551       C  0.45493113  0.74383085  0.93295414     0.08200
C1552       C  0.48446949  0.72490820  0.92551356    -0.13900
H1553       H  0.53965705  0.72508917  0.92126256     0.12200
H1554       H  0.49317662  0.82119637  0.94578365     0.12200
H1555       H  0.43614126  0.79433010  0.94475135     0.12200
H1556       H  0.48260348  0.69756016  0.92121967     0.12200
C1557       C  0.64982053  0.72012117  0.55769956    -0.13900
C1558       C  0.63607990  0.71566132  0.53138573     0.08200
C1559       C  0.61293262  0.68862669  0.52653563    -0.13900
C1560       C  0.60267278  0.66703520  0.54793157    -0.13900
C1561       C  0.61451821  0.67289271  0.57473779     0.08200
C1562       C  0.63886387  0.69908338  0.57932002    -0.13900
H1563       H  0.66699043  0.74149875  0.56193763     0.12200
H1564       H  0.60139953  0.68541419  0.50650952     0.12200
H1565       H  0.58376101  0.64715428  0.54381221     0.12200
H1566       H  0.64846577  0.70405608  0.59975110     0.12200
C1567       C  0.77812434  0.83472747  0.51691643    -0.13900
C1568       C  0.75538806  0.86060327  0.50807176     0.08200
C1569       C  0.76424181  0.89536186  0.01243746    -0.13900
C1570       C  0.79477143  0.90390732  0.52618415    -0.13900
C1571       C  0.81673619  0.87779800  0.53589254     0.08200
C1572       C  0.80829728  0.84319845  0.53067088    -0.13900
H1573       H  0.77229161  0.80769443  0.51378762     0.12200
H1574       H  0.74729688  0.91587476  0.00573602     0.12200
H1575       H  0.80067665  0.93080848  0.02986724     0.12200
H1576       H  0.82478005  0.82243070  0.53762170     0.12200
C1577       C  0.70458328  0.74417165  0.87135827    -0.13900
C1578       C  0.71585347  0.76543838  0.89274482     0.08200
C1579       C  0.75085091  0.77470757  0.89412173    -0.13900
C1580       C  0.77425501  0.76294690  0.87433977    -0.13900
C1581       C  0.76321073  0.74071480  0.85346772     0.08200
C1582       C  0.72819583  0.73139586  0.85216807    -0.13900
H1583       H  0.67772784  0.73676366  0.86992806     0.12200
H1584       H  0.75998584  0.79132768  0.91040298     0.12200
H1585       H  0.80110037  0.77037924  0.87578927     0.12200
H1586       H  0.71907700  0.71437007  0.83614761     0.12200
C1587       C  0.50374035  0.77792929  0.69597100    -0.13900
C1588       C  0.46957434  0.78263780  0.68751103     0.08200
C1589       C  0.44916147  0.75369485  0.68168583    -0.13900
C1590       C  0.46335306  0.72056512  0.68246275    -0.13900
C1591       C  0.49851344  0.71600401  0.68824517     0.08200
C1592       C  0.51822403  0.74482694  0.69612774    -0.13900
H1593       H  0.52001185  0.80002686  0.70010151     0.12200
H1594       H  0.42285314  0.75694443  0.67474328     0.12200
H1595       H  0.44760765  0.69893982  0.67609359     0.12200
H1596       H  0.54539303  0.74203516  0.70067743     0.12200
C1597       C  0.40050807  0.04615421  0.61806269    -0.13900
C1598       C  0.38349662  0.01526795  0.61145717     0.08200
C1599       C  0.35536143  0.01607104  0.59349056    -0.13900
C1600       C  0.34545412  0.04701001  0.58125273    -0.13900
C1601       C  0.36296914  0.07778069  0.58731322     0.08200
C1602       C  0.39003803  0.07728104  0.60632658    -0.13900
H1603       H  0.42211564  0.04614602  0.63207811     0.12200
H1604       H  0.34187232  0.99257104  0.58810363     0.12200
H1605       H  0.32442264  0.04680214  0.56669632     0.12200
H1606       H  0.40403602  0.10065951  0.61119829     0.12200
C1607       C  0.54456309  0.92412997  0.57050663    -0.13900
C1608       C  0.53850182  0.90051648  0.59184537     0.08200
C1609       C  0.55826221  0.87029482  0.59317286    -0.13900
C1610       C  0.58088458  0.86188869  0.57210517    -0.13900
C1611       C  0.58427044  0.88351890  0.54927009     0.08200
C1612       C  0.56745867  0.91561626  0.54918741    -0.13900
H1613       H  0.52935606  0.94747774  0.56899911     0.12200
H1614       H  0.55420398  0.85182618  0.60951029     0.12200
H1615       H  0.59384766  0.83713024  0.57265199     0.12200
H1616       H  0.56959969  0.93253660  0.53163248     0.12200
C1617       C  0.33835995  0.81570276  0.57517752    -0.13900
C1618       C  0.36645565  0.83757998  0.57023797     0.08200
C1619       C  0.38164185  0.83815614  0.54416438    -0.13900
C1620       C  0.36993918  0.81592967  0.52362208    -0.13900
C1621       C  0.34373029  0.79192921  0.52921861     0.08200
C1622       C  0.32739086  0.79264516  0.55492749    -0.13900
H1623       H  0.32657863  0.81471089  0.59528583     0.12200
H1624       H  0.40349804  0.85477930  0.54008437     0.12200
H1625       H  0.38327535  0.81557954  0.50411944     0.12200
H1626       H  0.30729351  0.77423007  0.55977585     0.12200
C1627       C  0.28779040  0.89739567  0.70391922    -0.13900
C1628       C  0.31882246  0.88020014  0.70965473     0.08200
C1629       C  0.31902051  0.85397637  0.72948461    -0.13900
C1630       C  0.28839445  0.84400390  0.74236574    -0.13900
C1631       C  0.25722668  0.86065599  0.73612037     0.08200
C1632       C  0.25735026  0.88799382  0.71728029    -0.13900
H1633       H  0.28696649  0.91778291  0.68877911     0.12200
H1634       H  0.34256779  0.84021196  0.73419537     0.12200
H1635       H  0.28898469  0.82297536  0.75695004     0.12200
H1636       H  0.23364937  0.90119180  0.71206037     0.12200
C1637       C  0.53116801  0.25019422  0.81627875    -0.13900
C1638       C  0.51449109  0.22265644  0.80321305     0.08200
C1639       C  0.48532895  0.22949380  0.78702808    -0.13900
C1640       C  0.47115418  0.26299503  0.78635978    -0.13900
C1641       C  0.48616300  0.28967470  0.80184212     0.08200
C1642       C  0.51723170  0.28327419  0.81556116    -0.13900
H1643       H  0.55363355  0.24554470  0.82890818     0.12200
H1644       H  0.47180799  0.20853384  0.77707044     0.12200
H1645       H  0.44684095  0.26719237  0.77602958     0.12200
H1646       H  0.52916319  0.30332254  0.82777528     0.12200
C1647       C  0.42083090  0.09664054  0.91151069    -0.13900
C1648       C  0.45659801  0.10155888  0.91327178     0.08200
C1649       C  0.47094985  0.11350302  0.93782621    -0.13900
C1650       C  0.44996781  0.12289864  0.95966025    -0.13900
C1651       C  0.41405803  0.12048887  0.95750320     0.08200
C1652       C  0.39955828  0.10595323  0.93370530    -0.13900
H1653       H  0.40931615  0.08785161  0.89257184     0.12200
H1654       H  0.49852381  0.11748394  0.93953143     0.12200
H1655       H  0.46178914  0.13373477  0.97781426     0.12200
H1656       H  0.37184498  0.10409687  0.93155817     0.12200
C1657       C  0.57920332  0.95718036  0.87625965    -0.13900
C1658       C  0.59806720  0.98772528  0.88031080     0.08200
C1659       C  0.62840604  0.98654892  0.89592641    -0.13900
C1660       C  0.63856789  0.95592743  0.90857425    -0.13900
C1661       C  0.61902619  0.92572013  0.90536722     0.08200
C1662       C  0.58981705  0.92632374  0.88845484    -0.13900
H1663       H  0.55587350  0.95729538  0.86411335     0.12200
H1664       H  0.64351300  0.00963774  0.89934572     0.12200
H1665       H  0.66128264  0.95605126  0.92144251     0.12200
H1666       H  0.57423200  0.90339088  0.88579891     0.12200
C1667       C  0.48011428  0.99710005  0.77412353    -0.13900
C1668       C  0.49824282  0.02716034  0.76670607     0.08200
C1669       C  0.50625208  0.03243289  0.73895811    -0.13900
C1670       C  0.49656088  0.00822513  0.71916704    -0.13900
C1671       C  0.47862768  0.97806283  0.72658619     0.08200
C1672       C  0.47043038  0.97285714  0.75431235    -0.13900
H1673       H  0.47369424  0.99205773  0.79533017     0.12200
H1674       H  0.52040925  0.05510109  0.73251702     0.12200
H1675       H  0.50312228  0.01323301  0.69798160     0.12200
H1676       H  0.45637393  0.95011368  0.76072406     0.12200
C1677       C  0.59309236  0.19515357  0.96664529    -0.13900
C1678       C  0.62575074  0.21048738  0.96839287     0.08200
C1679       C  0.65110413  0.20164749  0.94895907    -0.13900
C1680       C  0.64279286  0.17979789  0.92689378    -0.13900
C1681       C  0.60908246  0.16695288  0.92419809     0.08200
C1682       C  0.58484417  0.17379973  0.94479601    -0.13900
H1683       H  0.57318679  0.20120965  0.98147844     0.12200
H1684       H  0.67640281  0.21339493  0.94979147     0.12200
H1685       H  0.66184756  0.17479820  0.91115861     0.12200
H1686       H  0.55884548  0.16372626  0.94336492     0.12200
C1687       C  0.66507467  0.12671426  0.75700130    -0.13900
C1688       C  0.66464102  0.11843442  0.78504605     0.08200
C1689       C  0.69600128  0.11719959  0.79937679    -0.13900
C1690       C  0.72678777  0.12578171  0.78647025    -0.13900
C1691       C  0.72716050  0.13537152  0.75880502     0.08200
C1692       C  0.69621965  0.13489096  0.74390354    -0.13900
H1693       H  0.64134180  0.12770863  0.74539747     0.12200
H1694       H  0.69674989  0.11071488  0.82093123     0.12200
H1695       H  0.75033868  0.12560647  0.79835736     0.12200
H1696       H  0.69591190  0.14229143  0.72252822     0.12200
loop_ 
_geom_bond_atom_site_label_1 
_geom_bond_atom_site_label_2 
_geom_bond_distance 
_geom_bond_site_symmetry_2 
_ccdc_geom_bond_type 
Zn1           O5   1.970       .  S
Zn1           O6   2.055       .  S
Zn1          O10   2.018       .  S
Zn1          O17   2.015       .  S
Zn2           O5   1.917       .  S
Zn2           O7   1.978       .  S
Zn2           O9   1.973       .  S
Zn2          O13   1.984       .  S
Zn3           O5   1.969       .  S
Zn3           O8   2.009       .  S
Zn3          O11   2.044       .  S
Zn3          O14   1.986       .  S
Zn4           O5   1.979       .  S
Zn4          O12   2.040       .  S
Zn4          O15   2.077       .  S
Zn4          O16   2.039       .  S
O6           C18   1.275       .  A
O7           C19   1.268       .  A
O8           C20   1.273       .  A
O9           C18   1.269       .  A
O10          C20   1.274       .  A
O11          C19   1.272       .  A
O12          C21   1.277       .  A
O13          C22   1.271       .  A
O14          C21   1.273       .  A
O15          C22   1.278       .  A
O16          C23   1.279       .  A
O17          C23   1.276       .  A
C18         C800   1.469       .  S
C19         C833   1.473       .  S
C20         C810   1.478   1_545  S
C21         C840   1.480       .  S
C22         C790   1.478       .  S
C23         C820   1.486       .  S
Zn24         O28   1.961       .  S
Zn24         O29   2.031       .  S
Zn24         O33   2.010       .  S
Zn24         O40   2.006       .  S
Zn25         O28   1.926       .  S
Zn25         O30   1.987       .  S
Zn25         O32   2.007       .  S
Zn25         O36   1.995       .  S
Zn26         O28   1.964       .  S
Zn26         O31   2.003       .  S
Zn26         O34   2.047       .  S
Zn26         O37   2.010       .  S
Zn27         O28   1.968       .  S
Zn27         O35   2.041       .  S
Zn27         O38   2.050       .  S
Zn27         O39   2.026       .  S
O29          C41   1.272       .  A
O30          C42   1.271       .  A
O31          C43   1.273       .  A
O32          C41   1.271       .  A
O33          C43   1.274       .  A
O34          C42   1.275       .  A
O35          C44   1.278       .  A
O36          C45   1.271       .  A
O37          C44   1.274       .  A
O38          C45   1.276       .  A
O39          C46   1.275       .  A
O40          C46   1.273       .  A
C41         C770   1.470       .  S
C42         C760   1.474       .  S
C43         C750   1.471   1_565  S
C44         C823   1.486       .  S
C45         C740   1.469       .  S
C46         C780   1.476       .  S
Zn47         O51   1.964       .  S
Zn47         O52   2.043       .  S
Zn47         O56   2.035       .  S
Zn47         O63   2.059       .  S
Zn48         O51   1.949       .  S
Zn48         O53   1.990       .  S
Zn48         O55   2.015       .  S
Zn48        O907   2.043       .  S
Zn49         O51   1.973       .  S
Zn49         O54   2.002       .  S
Zn49         O57   2.029       .  S
Zn49        O908   2.051       .  S
Zn50         O51   1.919       .  S
Zn50         O62   1.992       .  S
Zn50        O906   1.975       .  S
Zn50        O909   1.981       .  S
O52          C64   1.277       .  A
O53          C65   1.272       .  A
O54          C66   1.275       .  A
O55          C64   1.274       .  A
O56          C66   1.277       .  A
O57          C65   1.274       .  A
O58        Zn898   1.975   1_554  S
O58          C67   1.269       .  A
O59        Zn896   2.043   1_554  S
O59          C68   1.275       .  A
O60        Zn897   2.051   1_554  S
O60          C67   1.274       .  A
O61        Zn898   1.981   1_554  S
O61          C68   1.268       .  A
O62          C69   1.270       .  A
O63          C69   1.277       .  A
C64         C730   1.475       .  S
C65        C1568   1.480       .  S
C66         C813   1.474       .  S
C67         C763   1.471       .  S
C68         C710   1.466       .  S
C69         C700   1.472       .  S
Zn70         O74   1.941       .  S
Zn70         O75   1.973       .  S
Zn70         O79   1.981       .  S
Zn70         O86   2.011       .  S
Zn71         O74   1.981       .  S
Zn71         O76   2.052       .  S
Zn71         O78   2.051       .  S
Zn71         O82   2.050       .  S
Zn72         O74   1.971       .  S
Zn72         O77   2.043       .  S
Zn72         O80   2.008       .  S
Zn72         O83   2.046       .  S
Zn73         O74   1.940       .  S
Zn73         O81   1.990       .  S
Zn73         O84   2.014       .  S
Zn73         O85   2.016       .  S
O75          C87   1.269       .  A
O76          C88   1.280       .  A
O77          C89   1.275       .  A
O78          C87   1.277       .  A
O79          C89   1.270       .  A
O80          C88   1.274       .  A
O81          C90   1.272       .  A
O82          C91   1.278       .  A
O83          C90   1.277       .  A
O84          C91   1.274       .  A
O85          C92   1.273       .  A
O86          C92   1.271       .  A
C87         C673   1.479       .  S
C88         C733   1.477       .  S
C89         C660   1.477       .  S
C90         C690   1.481       .  S
C91         C650   1.489       .  S
C92         C680   1.481       .  S
Zn93         O97   1.971       .  S
Zn93         O98   2.045       .  S
Zn93        O102   2.059       .  S
Zn93        O109   2.048   1_455  S
Zn94         O97   1.943       .  S
Zn94         O99   1.975       .  S
Zn94        O101   2.003       .  S
Zn94        O105   2.022       .  S
Zn95         O97   1.963       .  S
Zn95        O100   2.000       .  S
Zn95        O103   2.033       .  S
Zn95        O106   2.028       .  S
Zn96         O97   1.936       .  S
Zn96        O104   1.977       .  S
Zn96        O107   1.988       .  S
Zn96        O108   1.983       .  S
O98         C110   1.278       .  A
O99         C111   1.270       .  A
O100        C112   1.273       .  A
O101        C110   1.273       .  A
O102        C112   1.281       .  A
O103        C111   1.275       .  A
O104        C113   1.270       .  A
O105        C114   1.273       .  A
O106        C113   1.274       .  A
O107        C114   1.269       .  A
O108        C115   1.271   1_455  A
O109        C115   1.277       .  A
C110        C590   1.484       .  S
C111        C640   1.475       .  S
C112        C620   1.487       .  S
C113        C610   1.469   1_545  S
C114        C630   1.476       .  S
C115        C603   1.483       .  S
Zn116       O120   1.968       .  S
Zn116       O121   2.051       .  S
Zn116       O125   2.043       .  S
Zn116       O132   2.037   1_655  S
Zn117       O120   1.966       .  S
Zn117       O122   2.031       .  S
Zn117       O124   2.010       .  S
Zn117       O128   2.034       .  S
Zn118       O120   1.937       .  S
Zn118       O123   2.008       .  S
Zn118       O126   1.986       .  S
Zn118       O129   2.010       .  S
Zn119       O120   1.946       .  S
Zn119       O127   2.015       .  S
Zn119       O130   1.979       .  S
Zn119       O131   1.992       .  S
O121        C133   1.280       .  A
O122        C134   1.275       .  A
O123        C135   1.273       .  A
O124        C133   1.275       .  A
O125        C135   1.277       .  A
O126        C134   1.272       .  A
O127        C136   1.272       .  A
O128        C137   1.274       .  A
O129        C136   1.273       .  A
O130        C137   1.271       .  A
O131        C138   1.271   1_655  A
O132        C138   1.276       .  A
C133        C623   1.487       .  S
C134        C723   1.478       .  S
C135        C560   1.485       .  S
C136        C670   1.481       .  S
C137        C570   1.474   1_565  S
C138        C580   1.473       .  S
Zn139       O143   1.960       .  S
Zn139       O144   2.025       .  S
Zn139       O148   2.013       .  S
Zn139       O155   1.991       .  S
Zn140       O143   1.934       .  S
Zn140       O145   1.981       .  S
Zn140       O147   2.002       .  S
Zn140       O151   1.996       .  S
Zn141       O143   1.964       .  S
Zn141       O146   2.015       .  S
Zn141       O149   2.039       .  S
Zn141       O152   2.015       .  S
Zn142       O143   1.974       .  S
Zn142       O150   2.038       .  S
Zn142       O153   2.065       .  S
Zn142       O154   2.027       .  S
O144        C156   1.271       .  A
O145        C157   1.269       .  A
O146        C158   1.273       .  A
O147        C156   1.270       .  A
O148        C158   1.273       .  A
O149        C157   1.274       .  A
O150        C159   1.277       .  A
O151        C160   1.271       .  A
O152        C159   1.275       .  A
O153        C160   1.278       .  A
O154        C161   1.275       .  A
O155        C161   1.273       .  A
C156        C583   1.468       .  S
C157        C540   1.464       .  S
C158        C783   1.476       .  S
C159        C550   1.481       .  S
C160        C653   1.473       .  S
C161        C613   1.478       .  S
Zn162       O166   1.968       .  S
Zn162       O167   2.016       .  S
Zn162       O171   2.035       .  S
Zn162       O178   2.025       .  S
Zn163       O166   1.964       .  S
Zn163       O168   2.030       .  S
Zn163       O170   2.044       .  S
Zn163       O174   2.036       .  S
Zn164      O1014   1.944   1_554  S
Zn164       O169   1.977       .  S
Zn164       O172   2.001       .  S
Zn164       O175   2.011       .  S
Zn165       O166   1.943       .  S
Zn165       O173   2.017       .  S
Zn165       O176   2.013       .  S
Zn165       O177   1.994       .  S
O166      Zn1012   1.944       .  S
O167        C179   1.275       .  A
O168       C1028   1.274       .  A
O169       C1029   1.271   1_554  A
O170        C179   1.279       .  A
O171        C181   1.274       .  A
O172        C180   1.271       .  A
O173       C1030   1.274       .  A
O174        C183   1.277       .  A
O175        C182   1.272       .  A
O176        C183   1.274       .  A
O177        C184   1.272       .  A
O178        C184   1.274       .  A
C179        C553   1.475       .  S
C180       O1016   1.274   1_554  A
C180        C773   1.476       .  S
C181       O1017   1.271       .  A
C181       C1361   1.475       .  S
C182       O1021   1.274   1_554  A
C182        C520   1.481       .  S
C183        C703   1.481       .  S
C184        C530   1.477       .  S
Zn185       O189   1.930       .  S
Zn185       O190   1.993       .  S
Zn185       O194   2.007       .  S
Zn185       O201   1.981       .  S
Zn186       O189   1.978       .  S
Zn186       O191   2.028       .  S
Zn186       O193   2.062       .  S
Zn186       O197   2.049       .  S
Zn187       O189   1.958       .  S
Zn187       O192   2.034       .  S
Zn187       O195   1.983       .  S
Zn187       O198   2.013       .  S
Zn188       O189   1.954       .  S
Zn188       O196   1.998       .  S
Zn188       O199   2.006       .  S
Zn188       O200   2.027       .  S
O190        C202   1.271       .  A
O191        C203   1.275       .  A
O192        C204   1.272       .  A
O193        C202   1.278       .  A
O194        C204   1.270       .  A
O195        C203   1.273       .  A
O196        C205   1.271       .  A
O197        C206   1.278       .  A
O198        C205   1.273       .  A
O199        C206   1.273       .  A
O200        C207   1.273       .  A
O201        C207   1.270       .  A
C202        C460   1.471       .  S
C203        C500   1.475       .  S
C204        C493   1.474       .  S
C205        C470   1.473       .  S
C206        C480   1.488       .  S
C207        C633   1.460       .  S
Zn208       O212   1.963       .  S
Zn208       O213   2.006       .  S
Zn208       O217   1.996       .  S
Zn208      O1072   2.039   1_554  S
Zn209       O212   1.959       .  S
Zn209       O214   2.021       .  S
Zn209       O216   2.002       .  S
Zn209      O1068   2.058   1_554  S
Zn210       O212   1.961       .  S
Zn210       O215   2.024       .  S
Zn210       O218   2.039       .  S
Zn210       O221   2.059       .  S
Zn211       O212   1.910       .  S
Zn211       O219   2.000       .  S
Zn211      O1070   1.981   1_554  S
Zn211      O1071   1.998   1_554  S
O213       C1073   1.272       .  A
O214        C226   1.276       .  A
O215        C227   1.276       .  A
O216       C1073   1.273       .  A
O217        C227   1.273       .  A
O218        C226   1.279       .  A
O219        C228   1.272       .  A
O220      Zn1057   2.058       .  S
O220        C229   1.276       .  A
O221        C228   1.276       .  A
O222      Zn1059   1.981       .  S
O222        C229   1.271       .  A
O223      Zn1059   1.998       .  S
O223        C230   1.273       .  A
O224      Zn1056   2.039       .  S
O224        C230   1.273       .  A
C225       O1061   1.272       .  A
C225       O1064   1.273       .  A
C225        C643   1.476       .  S
C226        C483   1.487       .  S
C227        C753   1.471       .  S
C228        C440   1.476       .  S
C229        C450   1.476       .  S
C230        C803   1.476       .  S
Zn231       O235   1.973       .  S
Zn231       O236   2.055       .  S
Zn231       O240   2.041       .  S
Zn231       O247   2.037       .  S
Zn232       O235   1.966       .  S
Zn232       O237   2.038       .  S
Zn232       O239   2.004       .  S
Zn232       O243   2.036       .  S
Zn233       O235   1.940       .  S
Zn233       O238   1.983       .  S
Zn233       O241   1.974       .  S
Zn233       O244   1.995       .  S
Zn234       O235   1.949       .  S
Zn234       O242   2.033       .  S
Zn234       O245   1.992       .  S
Zn234       O246   2.010       .  S
O236        C248   1.279       .  A
O237        C249   1.275       .  A
O238        C250   1.270       .  A
O239        C248   1.274       .  A
O240        C250   1.275       .  A
O241        C249   1.270       .  A
O242        C251   1.274       .  A
O243        C252   1.275       .  A
O244        C251   1.269       .  A
O245        C252   1.272       .  A
O246        C253   1.274       .  A
O247        C253   1.277       .  A
C248        C430   1.479       .  S
C249        C420   1.473       .  S
C250        C523   1.482       .  S
C251        C713   1.479       .  S
C252        C663   1.478       .  S
C253        C743   1.480       .  S
Zn254       O258   1.899       .  S
Zn254       O259   1.973       .  S
Zn254       O263   1.974       .  S
Zn254       O270   1.978       .  S
Zn255       O258   1.956       .  S
Zn255       O260   2.016       .  S
Zn255       O262   2.054       .  S
Zn255       O266   2.006       .  S
Zn256       O258   1.965       .  S
Zn256       O261   2.078       .  S
Zn256       O264   2.044       .  S
Zn256       O267   2.019       .  S
Zn257       O258   1.968       .  S
Zn257       O265   2.008       .  S
Zn257       O268   2.016       .  S
Zn257       O269   2.056       .  S
O259        C271   1.269       .  A
O260        C272   1.276       .  A
O261        C273   1.278       .  A
O262        C271   1.275       .  A
O263        C273   1.269       .  A
O264        C272   1.278       .  A
O265        C274   1.275       .  A
O266        C275   1.274       .  A
O267        C274   1.276       .  A
O268        C275   1.274       .  A
O269        C276   1.275       .  A
O270        C276   1.270       .  A
C271        C410   1.472       .  S
C272        C433   1.481       .  S
C273        C793   1.478       .  S
C274        C473   1.472       .  S
C275        C533   1.479       .  S
C276        C453   1.479       .  S
Zn277       O281   1.966       .  S
Zn277       O282   2.001       .  S
Zn277       O286   2.034       .  S
Zn277       O293   2.032       .  S
Zn278       O281   1.973       .  S
Zn278       O283   2.030       .  S
Zn278       O285   2.055       .  S
Zn278       O289   2.048       .  S
Zn279       O281   1.948       .  S
Zn279       O284   1.985       .  S
Zn279       O287   1.987       .  S
Zn279       O290   2.014       .  S
Zn280       O281   1.941       .  S
Zn280       O288   2.017       .  S
Zn280       O291   2.006       .  S
Zn280       O292   1.980       .  S
O282        C294   1.273       .  A
O283        C295   1.275       .  A
O284        C296   1.271       .  A
O285        C294   1.279       .  A
O286        C296   1.274       .  A
O287        C295   1.271       .  A
O288        C297   1.273       .  A
O289        C298   1.278       .  A
O290        C297   1.271       .  A
O291        C298   1.273       .  A
O292        C299   1.271       .  A
O293        C299   1.275       .  A
C294        C400   1.479       .  S
C295        C390   1.478       .  S
C296        C843   1.474       .  S
C297        C600   1.481       .  S
C298        C463   1.483       .  S
C299        C573   1.473       .  S
Zn300       O304   1.913       .  S
Zn300       O316   1.965       .  S
Zn300      O1153   1.976   1_554  S
Zn300      O1157   1.978   1_554  S
Zn301       O304   1.965       .  S
Zn301       O306   2.012       .  S
Zn301       O312   2.027       .  S
Zn301      O1156   2.053   1_554  S
Zn302       O304   1.970       .  S
Zn302       O310   2.011       .  S
Zn302       O313   1.997       .  S
Zn302      O1155   2.047   1_554  S
Zn303       O304   1.981       .  S
Zn303       O311   2.027       .  S
Zn303       O314   2.035       .  S
Zn303       O315   2.083       .  S
O305      Zn1148   1.976       .  S
O305        C317   1.270       .  A
O306       C1166   1.274       .  A
O307      Zn1150   2.047       .  S
O307        C319   1.273       .  A
O308      Zn1149   2.053       .  S
O308        C317   1.275       .  A
O309      Zn1148   1.978       .  S
O309        C319   1.269       .  A
O310       C1166   1.273       .  A
O311        C320   1.276       .  A
O312        C321   1.277       .  A
O313        C320   1.274       .  A
O314        C321   1.277       .  A
O315        C322   1.278       .  A
O316        C322   1.267       .  A
C317        C830   1.476       .  S
C318       O1154   1.274       .  A
C318       O1158   1.273       .  A
C318        C380   1.480       .  S
C319        C413   1.474       .  S
C320        C423   1.478       .  S
C321        C403   1.480       .  S
C322        C443   1.475       .  S
Zn323       O327   1.936       .  S
Zn323       O328   1.978       .  S
Zn323       O332   1.998       .  S
Zn323       O339   1.966       .  S
Zn324       O327   1.975       .  S
Zn324       O329   2.048       .  S
Zn324       O331   2.047   1_455  S
Zn324       O335   2.065   1_455  S
Zn325       O327   1.939       .  S
Zn325       O330   2.021       .  S
Zn325       O333   2.001       .  S
Zn325       O336   1.967       .  S
Zn326       O327   1.970       .  S
Zn326       O334   2.044       .  S
Zn326       O337   2.002       .  S
Zn326       O338   2.037       .  S
O328        C340   1.270   1_455  A
O329        C341   1.278       .  A
O330        C342   1.271       .  A
O331        C340   1.277       .  A
O332        C342   1.269       .  A
O333        C341   1.273       .  A
O334        C343   1.276       .  A
O335        C344   1.281   1_655  A
O336        C343   1.270       .  A
O337        C344   1.274       .  A
O338        C345   1.275       .  A
O339        C345   1.269       .  A
C340        C683   1.481       .  S
C341        C563   1.486       .  S
C342        C543   1.478       .  S
C343        C510   1.473       .  S
C344        C370   1.489       .  S
C345        C503   1.472       .  S
Zn346       O350   1.947       .  S
Zn346       O351   1.989       .  S
Zn346       O355   2.019       .  S
Zn346       O362   2.000       .  S
Zn347       O350   1.970       .  S
Zn347       O352   2.043       .  S
Zn347       O354   2.046       .  S
Zn347       O358   2.022       .  S
Zn348       O350   1.935       .  S
Zn348       O353   1.998       .  S
Zn348       O356   1.980       .  S
Zn348       O359   2.002       .  S
Zn349       O350   1.966       .  S
Zn349       O357   2.045       .  S
Zn349       O360   2.047       .  S
Zn349       O361   2.042   1_655  S
O351        C363   1.272       .  A
O352        C364   1.277       .  A
O353        C365   1.272       .  A
O354        C363   1.276       .  A
O355        C365   1.273       .  A
O356        C364   1.270       .  A
O357        C366   1.277       .  A
O358        C367   1.276       .  A
O359        C366   1.272       .  A
O360        C367   1.281       .  A
O361        C368   1.276       .  A
O362        C368   1.271   1_655  A
C363        C693   1.478       .  S
C364        C383   1.479       .  S
C365        C393   1.478       .  S
C366        C593   1.485       .  S
C367        C373   1.489       .  S
C368        C490   1.476       .  S
C369        C374   1.398       .  A
C369       C1218   1.409       .  A
C369        H375   1.083       .  S
C370        C371   1.405   1_455  A
C370       C1217   1.409       .  A
C371        C372   1.403   1_554  A
C371        H376   1.083       .  S
C372       C1221   1.410       .  A
C372        H377   1.083       .  S
C373        C374   1.404   1_655  A
C373       C1220   1.410       .  A
C374        H378   1.083       .  S
C379       C1228   1.403       .  A
C379       C1232   1.393       .  A
C379        H385   1.083       .  S
C380        C381   1.408       .  A
C380       C1227   1.403       .  A
C381        C382   1.401       .  A
C381        H386   1.083       .  S
C382        C383   1.404       .  A
C382        H387   1.083       .  S
C383        C384   1.406       .  A
C384       C1227   1.393       .  A
C384        H388   1.083       .  S
C389        C390   1.405       .  A
C389        C394   1.393       .  A
C389        H395   1.083       .  S
C390        C391   1.406       .  A
C391        C392   1.400       .  A
C391        H396   1.083       .  S
C392        C393   1.406       .  A
C392        H397   1.083       .  S
C393        C394   1.404       .  A
C394        H398   1.083       .  S
C399        C400   1.404       .  A
C399        C404   1.403       .  A
C399        H405   1.083       .  S
C400        C401   1.406       .  A
C401        C402   1.398       .  A
C401        H406   1.083       .  S
C402        C403   1.403       .  A
C402        H407   1.083       .  S
C403        C404   1.407       .  A
C404        H408   1.083       .  S
C409        C410   1.401       .  A
C409        C414   1.388       .  A
C409        H415   1.084       .  S
C410        C411   1.406       .  A
C411        C412   1.408       .  A
C411        H416   1.083       .  S
C412        C413   1.407       .  A
C412        H417   1.083       .  S
C413        C414   1.401       .  A
C414        H418   1.084       .  S
C419        C420   1.403       .  A
C419        C424   1.390       .  A
C419        H425   1.083       .  S
C420        C421   1.404       .  A
C421        C422   1.402       .  A
C421        H426   1.083       .  S
C422        C423   1.408       .  A
C422        H427   1.083       .  S
C423        C424   1.404       .  A
C424        H428   1.083       .  S
C429        C430   1.405       .  A
C429        C434   1.404       .  A
C429        H435   1.083       .  S
C430        C431   1.405       .  A
C431        C432   1.397       .  A
C431        H436   1.083       .  S
C432        C433   1.404       .  A
C432        H437   1.083       .  S
C433        C434   1.407       .  A
C434        H438   1.083       .  S
C439        C440   1.401       .  A
C439        C444   1.394       .  A
C439        H445   1.084       .  S
C440        C441   1.407       .  A
C441        C442   1.408       .  A
C441        H446   1.083       .  S
C442        C443   1.405       .  A
C442        H447   1.083       .  S
C443        C444   1.404       .  A
C444        H448   1.084       .  S
C449        C450   1.402       .  A
C449        C454   1.388       .  A
C449        H455   1.084       .  S
C450        C451   1.406       .  A
C451        C452   1.409       .  A
C451        H456   1.083       .  S
C452        C453   1.409       .  A
C452        H457   1.083       .  S
C453        C454   1.402       .  A
C454        H458   1.084       .  S
C459        C460   1.404   1_655  A
C459        C464   1.400       .  A
C459        H465   1.083       .  S
C460        C461   1.401       .  A
C461        C462   1.401   1_455  A
C461        H466   1.083       .  S
C462        C463   1.408       .  A
C462        H467   1.083       .  S
C463        C464   1.405       .  A
C464        H468   1.083       .  S
C469        C470   1.404       .  A
C469        C474   1.396       .  A
C469        H475   1.083       .  S
C470        C471   1.405       .  A
C471        C472   1.395       .  A
C471        H476   1.083       .  S
C472        C473   1.403       .  A
C472        H477   1.083       .  S
C473        C474   1.405       .  A
C474        H478   1.083       .  S
C479        C480   1.408       .  A
C479        C484   1.398       .  A
C479        H485   1.083       .  S
C480        C481   1.406       .  A
C481        C482   1.402       .  A
C481        H486   1.083       .  S
C482        C483   1.409       .  A
C482        H487   1.083       .  S
C483        C484   1.404       .  A
C484        H488   1.083       .  S
C489        C490   1.406       .  A
C489        C494   1.401       .  A
C489        H495   1.083       .  S
C490        C491   1.404       .  A
C491        C492   1.399       .  A
C491        H496   1.083       .  S
C492        C493   1.404       .  A
C492        H497   1.083       .  S
C493        C494   1.403       .  A
C494        H498   1.083       .  S
C499        C500   1.407       .  A
C499        C504   1.402       .  A
C499        H505   1.083       .  S
C500        C501   1.403       .  A
C501        C502   1.387       .  A
C501        H506   1.083       .  S
C502        C503   1.403       .  A
C502        H507   1.083       .  S
C503        C504   1.404       .  A
C504        H508   1.083       .  S
C509        C510   1.402       .  A
C509        C514   1.385       .  A
C509        H515   1.084       .  S
C510        C511   1.406       .  A
C511        C512   1.406   1_554  A
C511        H516   1.083       .  S
C512        C513   1.408   1_556  A
C512        H517   1.083       .  S
C513       C1029   1.475   1_554  S
C513        C514   1.402       .  A
C514       H1366   1.083       .  S
H518       C1362   1.083       .  S
C519        C520   1.408       .  A
C519        C524   1.401       .  A
C519        H525   1.083       .  S
C520        C521   1.403       .  A
C521        C522   1.394       .  A
C521        H526   1.083       .  S
C522        C523   1.407       .  A
C522        H527   1.083       .  S
C523        C524   1.405       .  A
C524        H528   1.083       .  S
C529        C530   1.405       .  A
C529        C534   1.400       .  A
C529        H535   1.083       .  S
C530        C531   1.404       .  A
C531        C532   1.392       .  A
C531        H536   1.083       .  S
C532        C533   1.405       .  A
C532        H537   1.083       .  S
C533        C534   1.407       .  A
C534        H538   1.083       .  S
C539        C540   1.401       .  A
C539        C544   1.395       .  A
C539        H545   1.084       .  S
C540        C541   1.402       .  A
C541        C542   1.400       .  A
C541        H546   1.083       .  S
C542        C543   1.406       .  A
C542        H547   1.083       .  S
C543        C544   1.406       .  A
C544        H548   1.083       .  S
C549        C550   1.406       .  A
C549        C554   1.399       .  A
C549        H555   1.083       .  S
C550        C551   1.406       .  A
C551        C552   1.401       .  A
C551        H556   1.083       .  S
C552        C553   1.403       .  A
C552        H557   1.083       .  S
C553        C554   1.403       .  A
C554        H558   1.083       .  S
C559        C560   1.408       .  A
C559        C564   1.400       .  A
C559        H565   1.083       .  S
C560        C561   1.405   1_655  A
C561        C562   1.400       .  A
C561        H566   1.083       .  S
C562        C563   1.409       .  A
C562        H567   1.083       .  S
C563        C564   1.405   1_455  A
C564        H568   1.083       .  S
C569        C570   1.406       .  A
C569        C574   1.403       .  A
C569        H575   1.083       .  S
C570        C571   1.403       .  A
C571        C572   1.388       .  A
C571        H576   1.083       .  S
C572        C573   1.403       .  A
C572        H577   1.083       .  S
C573        C574   1.405       .  A
C574        H578   1.083       .  S
C579        C580   1.403       .  A
C579        C584   1.397       .  A
C579        H585   1.083       .  S
C580        C581   1.406       .  A
C581        C582   1.399       .  A
C581        H586   1.083       .  S
C582        C583   1.401       .  A
C582        H587   1.083       .  S
C583        C584   1.403       .  A
C584        H588   1.084       .  S
C589        C590   1.404   1_655  A
C589        C594   1.399       .  A
C589        H595   1.083       .  S
C590        C591   1.408       .  A
C591        C592   1.400       .  A
C591        H596   1.083       .  S
C592        C593   1.405   1_455  A
C592        H597   1.083       .  S
C593        C594   1.408       .  A
C594        H598   1.083       .  S
C599        C600   1.408       .  A
C599        C604   1.402       .  A
C599        H605   1.083       .  S
C600        C601   1.403       .  A
C601        C602   1.395       .  A
C601        H606   1.083       .  S
C602        C603   1.407       .  A
C602        H607   1.083       .  S
C603        C604   1.406       .  A
C604        H608   1.083       .  S
C609        C610   1.403       .  A
C609        C614   1.401       .  A
C609        H615   1.083       .  S
C610        C611   1.402       .  A
C611        C612   1.390       .  A
C611        H616   1.084   1_565  S
C612        C613   1.405       .  A
C612        H617   1.083       .  S
C613        C614   1.407       .  A
C614        H618   1.083       .  S
C619        C620   1.404   1_655  A
C619        C624   1.401   1_545  A
C619        H625   1.083       .  S
C620       C1469   1.410   1_545  A
C621        C622   1.399   1_556  A
C621       C1468   1.410   1_565  A
C621        H626   1.083       .  S
C622        C623   1.404   1_455  A
C622        H627   1.083       .  S
C623       C1472   1.410       .  A
C624       C1471   1.410       .  A
C624        H628   1.083   1_565  S
C629        C630   1.405       .  A
C629        C634   1.398       .  A
C629        H635   1.083       .  S
C630        C631   1.407       .  A
C631        C632   1.394       .  A
C631        H636   1.083       .  S
C632        C633   1.399       .  A
C632        H637   1.084       .  S
C633        C634   1.402       .  A
C634        H638   1.084       .  S
C639        C640   1.404       .  A
C639        C644   1.389       .  A
C639        H645   1.083       .  S
C640        C641   1.404       .  A
C641        C642   1.401       .  A
C641        H646   1.083       .  S
C642        C643   1.408       .  A
C642        H647   1.083       .  S
C643        C644   1.403       .  A
C644        H648   1.083       .  S
C649        C650   1.408       .  A
C649        C654   1.403       .  A
C649        H655   1.083       .  S
C650        C651   1.409       .  A
C651        C652   1.400   1_655  A
C651        H656   1.083       .  S
C652        C653   1.401       .  A
C652        H657   1.083       .  S
C653        C654   1.404   1_455  A
C654        H658   1.083       .  S
C659        C660   1.403       .  A
C659        C664   1.390       .  A
C659        H665   1.083       .  S
C660        C661   1.406       .  A
C661        C662   1.405       .  A
C661        H666   1.083       .  S
C662        C663   1.407       .  A
C662        H667   1.083       .  S
C663        C664   1.403       .  A
C664        H668   1.083       .  S
C669        C670   1.403       .  A
C669        C674   1.393       .  A
C669        H675   1.083       .  S
C670        C671   1.408       .  A
C671        C672   1.402       .  A
C671        H676   1.083       .  S
C672        C673   1.405       .  A
C672        H677   1.083       .  S
C673        C674   1.406       .  A
C674        H678   1.083       .  S
C679        C680   1.403       .  A
C679        C684   1.394       .  A
C679        H685   1.083       .  S
C680        C681   1.408       .  A
C681        C682   1.401       .  A
C681        H686   1.083       .  S
C682        C683   1.405       .  A
C682        H687   1.083       .  S
C683        C684   1.407       .  A
C684        H688   1.083       .  S
C689        C690   1.407       .  A
C689        C694   1.406       .  A
C689        H695   1.083       .  S
C690        C691   1.405       .  A
C691        C692   1.390       .  A
C691        H696   1.083       .  S
C692        C693   1.403       .  A
C692        H697   1.083       .  S
C693        C694   1.406       .  A
C694        H698   1.083       .  S
C699        C700   1.403       .  A
C699        C704   1.403       .  A
C699        H705   1.083       .  S
C700        C701   1.403       .  A
C701        C702   1.398       .  A
C701        H706   1.083       .  S
C702        C703   1.405       .  A
C702        H707   1.083       .  S
C703        C704   1.408       .  A
C704        H708   1.083       .  S
C709        C710   1.403       .  A
C709        C714   1.400       .  A
C709        H715   1.083       .  S
C710        C711   1.401       .  A
C711        C712   1.397       .  A
C711        H716   1.083       .  S
C712        C713   1.407       .  A
C712        H717   1.083       .  S
C713        C714   1.405       .  A
C714        H718   1.083       .  S
C719        C720   1.405       .  A
C719        C724   1.390       .  A
C719        H725   1.083       .  S
C720        C913   1.480   1_554  S
C720       C1569   1.407       .  A
C721       C1568   1.407       .  A
C721       C1570   1.402       .  A
C721        H726   1.083       .  S
C722        C723   1.406       .  A
C722       C1569   1.402       .  A
C722       H1575   1.083       .  S
C723        C724   1.404       .  A
C724        H728   1.083       .  S
H727       C1570   1.083       .  S
C729        C730   1.401       .  A
C729        C734   1.400       .  A
C729        H735   1.083       .  S
C730        C731   1.406       .  A
C731        C732   1.401       .  A
C731        H736   1.083       .  S
C732        C733   1.402       .  A
C732        H737   1.083       .  S
C733        C734   1.407       .  A
C734        H738   1.083       .  S
C739        C740   1.401       .  A
C739        C744   1.401       .  A
C739        H745   1.083       .  S
C740        C741   1.403       .  A
C741        C742   1.398       .  A
C741        H746   1.084       .  S
C742        C743   1.405       .  A
C742        H747   1.083       .  S
C743        C744   1.408       .  A
C744        H748   1.083       .  S
C749        C750   1.405       .  A
C749        C754   1.397       .  A
C749        H755   1.083       .  S
C750        C751   1.402       .  A
C751        C752   1.395       .  A
C751        H756   1.083   1_545  S
C752        C753   1.405       .  A
C752        H757   1.083       .  S
C753        C754   1.403       .  A
C754        H758   1.083       .  S
C759        C760   1.407       .  A
C759        C764   1.407       .  A
C759        H765   1.083       .  S
C760        C761   1.402       .  A
C761        C762   1.390       .  A
C761        H766   1.084       .  S
C762        C763   1.402       .  A
C762        H767   1.084       .  S
C763        C764   1.405       .  A
C764        H768   1.083       .  S
C769        C770   1.402       .  A
C769        C774   1.400       .  A
C769        H775   1.083       .  S
C770        C771   1.402       .  A
C771        C772   1.399       .  A
C771        H776   1.083       .  S
C772        C773   1.405       .  A
C772        H777   1.083       .  S
C773        C774   1.406       .  A
C774        H778   1.083       .  S
C779        C780   1.405       .  A
C779        C784   1.397       .  A
C779        H785   1.083       .  S
C780        C781   1.405       .  A
C781        C782   1.398       .  A
C781        H786   1.083       .  S
C782        C783   1.405       .  A
C782        H787   1.083       .  S
C783        C784   1.404       .  A
C784        H788   1.083       .  S
C789        C790   1.402       .  A
C789        C794   1.392       .  A
C789        H795   1.084       .  S
C790        C791   1.407       .  A
C791        C792   1.411       .  A
C791        H796   1.083       .  S
C792        C793   1.408       .  A
C792        H797   1.083       .  S
C793        C794   1.402       .  A
C794        H798   1.084       .  S
C799        C800   1.404       .  A
C799        C804   1.408       .  A
C799        H805   1.083       .  S
C800        C801   1.402       .  A
C801        C802   1.389       .  A
C801        H806   1.084       .  S
C802        C803   1.401       .  A
C802        H807   1.084       .  S
C803        C804   1.410       .  A
C804        H808   1.083       .  S
C809        C810   1.406       .  A
C809        C814   1.399       .  A
C809        H815   1.083       .  S
C810        C811   1.404       .  A
C811        C812   1.396       .  A
C811        H816   1.083   1_565  S
C812        C813   1.404       .  A
C812        H817   1.083       .  S
C813        C814   1.404       .  A
C814        H818   1.083       .  S
C819        C820   1.408   1_565  A
C819        C824   1.400       .  A
C819        H825   1.083       .  S
C820        C821   1.405       .  A
C821        C822   1.399       .  A
C821        H826   1.083       .  S
C822        C823   1.408   1_545  A
C822        H827   1.083       .  S
C823        C824   1.405       .  A
C824        H828   1.083       .  S
C829        C830   1.402       .  A
C829        C834   1.388       .  A
C829        H835   1.084       .  S
C830        C831   1.408       .  A
C831        C832   1.408       .  A
C831        H836   1.083       .  S
C832        C833   1.406       .  A
C832        H837   1.083       .  S
C833        C834   1.401       .  A
C834        H838   1.084       .  S
C839        C840   1.407       .  A
C839        C844   1.403       .  A
C839        H845   1.083       .  S
C840        C841   1.406       .  A
C841        C842   1.390       .  A
C841        H846   1.083       .  S
C842        C843   1.402       .  A
C842        H847   1.083       .  S
C843        C844   1.405       .  A
C844        H848   1.083       .  S
Zn849       O853   1.970       .  S
Zn849       O854   2.055       .  S
Zn849       O858   2.018       .  S
Zn849       O865   2.015       .  S
Zn850       O853   1.917       .  S
Zn850       O855   1.978       .  S
Zn850       O857   1.973       .  S
Zn850       O861   1.984       .  S
Zn851       O853   1.969       .  S
Zn851       O856   2.009       .  S
Zn851       O859   2.044       .  S
Zn851       O862   1.986       .  S
Zn852       O853   1.979       .  S
Zn852       O860   2.040       .  S
Zn852       O863   2.077       .  S
Zn852       O864   2.039       .  S
O854        C866   1.275       .  A
O855        C867   1.268       .  A
O856        C868   1.273       .  A
O857        C866   1.269       .  A
O858        C868   1.274       .  A
O859        C867   1.272       .  A
O860        C869   1.277       .  A
O861        C870   1.271       .  A
O862        C869   1.273       .  A
O863        C870   1.278       .  A
O864        C871   1.279       .  A
O865        C871   1.276       .  A
C866       C1648   1.469       .  S
C867       C1681   1.473       .  S
C868       C1658   1.478   1_545  S
C869       C1688   1.480       .  S
C870       C1638   1.478       .  S
C871       C1668   1.486       .  S
Zn872       O876   1.961       .  S
Zn872       O877   2.031       .  S
Zn872       O881   2.010       .  S
Zn872       O888   2.006       .  S
Zn873       O876   1.926       .  S
Zn873       O878   1.987       .  S
Zn873       O880   2.007       .  S
Zn873       O884   1.995       .  S
Zn874       O876   1.964       .  S
Zn874       O879   2.003       .  S
Zn874       O882   2.047       .  S
Zn874       O885   2.010       .  S
Zn875       O876   1.968       .  S
Zn875       O883   2.041       .  S
Zn875       O886   2.050       .  S
Zn875       O887   2.026       .  S
O877        C889   1.272       .  A
O878        C890   1.271       .  A
O879        C891   1.273       .  A
O880        C889   1.271       .  A
O881        C891   1.274       .  A
O882        C890   1.275       .  A
O883        C892   1.278       .  A
O884        C893   1.271       .  A
O885        C892   1.274       .  A
O886        C893   1.276       .  A
O887        C894   1.275       .  A
O888        C894   1.273       .  A
C889       C1618   1.470       .  S
C890       C1608   1.474       .  S
C891       C1598   1.471   1_565  S
C892       C1671   1.486       .  S
C893       C1588   1.469       .  S
C894       C1628   1.476       .  S
Zn895       O899   1.964       .  S
Zn895       O900   2.043       .  S
Zn895       O904   2.035       .  S
Zn895       O911   2.059       .  S
Zn896       O899   1.949       .  S
Zn896       O901   1.990       .  S
Zn896       O903   2.015       .  S
Zn897       O899   1.973       .  S
Zn897       O902   2.002       .  S
Zn897       O905   2.029       .  S
Zn898       O899   1.919       .  S
Zn898       O910   1.992       .  S
O900        C912   1.277       .  A
O901        C913   1.272       .  A
O902        C914   1.275       .  A
O903        C912   1.274       .  A
O904        C914   1.277       .  A
O905        C913   1.274       .  A
O906        C915   1.269       .  A
O907        C916   1.275       .  A
O908        C915   1.274       .  A
O909        C916   1.268       .  A
O910        C917   1.270       .  A
O911        C917   1.277       .  A
C912       C1578   1.475       .  S
C914       C1661   1.474       .  S
C915       C1611   1.471       .  S
C916       C1558   1.465       .  S
C917       C1548   1.472       .  S
Zn918       O922   1.941       .  S
Zn918       O923   1.973       .  S
Zn918       O927   1.981       .  S
Zn918       O934   2.011       .  S
Zn919       O922   1.981       .  S
Zn919       O924   2.052       .  S
Zn919       O926   2.051       .  S
Zn919       O930   2.050       .  S
Zn920       O922   1.971       .  S
Zn920       O925   2.043       .  S
Zn920       O928   2.008       .  S
Zn920       O931   2.046       .  S
Zn921       O922   1.940       .  S
Zn921       O929   1.990       .  S
Zn921       O932   2.014       .  S
Zn921       O933   2.016       .  S
O923        C935   1.269       .  A
O924        C936   1.280       .  A
O925        C937   1.275       .  A
O926        C935   1.277       .  A
O927        C937   1.270       .  A
O928        C936   1.274       .  A
O929        C938   1.272       .  A
O930        C939   1.278       .  A
O931        C938   1.277       .  A
O932        C939   1.274       .  A
O933        C940   1.273       .  A
O934        C940   1.271       .  A
C935       C1521   1.479       .  S
C936       C1581   1.477       .  S
C937       C1508   1.477       .  S
C938       C1538   1.481       .  S
C939       C1498   1.489       .  S
C940       C1528   1.481       .  S
Zn941       O945   1.971       .  S
Zn941       O946   2.045       .  S
Zn941       O950   2.059       .  S
Zn941       O957   2.048   1_455  S
Zn942       O945   1.943       .  S
Zn942       O947   1.975       .  S
Zn942       O949   2.003       .  S
Zn942       O953   2.022       .  S
Zn943       O945   1.963       .  S
Zn943       O948   2.000       .  S
Zn943       O951   2.033       .  S
Zn943       O954   2.028       .  S
Zn944       O945   1.936       .  S
Zn944       O952   1.977       .  S
Zn944       O955   1.988       .  S
Zn944       O956   1.983       .  S
O946        C958   1.278       .  A
O947        C959   1.270       .  A
O948        C960   1.273       .  A
O949        C958   1.273       .  A
O950        C960   1.281       .  A
O951        C959   1.275       .  A
O952        C961   1.270       .  A
O953        C962   1.273       .  A
O954        C961   1.274       .  A
O955        C962   1.269       .  A
O956        C963   1.271   1_455  A
O957        C963   1.277       .  A
C958       C1438   1.484       .  S
C959       C1488   1.475       .  S
C960       C1468   1.487       .  S
C961       C1458   1.469   1_545  S
C962       C1478   1.476       .  S
C963       C1451   1.483       .  S
Zn964       O968   1.968       .  S
Zn964       O969   2.051       .  S
Zn964       O973   2.043       .  S
Zn964       O980   2.037   1_655  S
Zn965       O968   1.966       .  S
Zn965       O970   2.031       .  S
Zn965       O972   2.010       .  S
Zn965       O976   2.034       .  S
Zn966       O968   1.937       .  S
Zn966       O971   2.008       .  S
Zn966       O974   1.986       .  S
Zn966       O977   2.010       .  S
Zn967       O968   1.946       .  S
Zn967       O975   2.015       .  S
Zn967       O978   1.979       .  S
Zn967       O979   1.992       .  S
O969        C981   1.280       .  A
O970        C982   1.275       .  A
O971        C983   1.273       .  A
O972        C981   1.275       .  A
O973        C983   1.277       .  A
O974        C982   1.272       .  A
O975        C984   1.272       .  A
O976        C985   1.274       .  A
O977        C984   1.273       .  A
O978        C985   1.271       .  A
O979        C986   1.271   1_655  A
O980        C986   1.276       .  A
C981       C1471   1.487       .  S
C982       C1571   1.478       .  S
C983       C1408   1.485       .  S
C984       C1518   1.481       .  S
C985       C1418   1.474   1_565  S
C986       C1428   1.473       .  S
Zn987       O991   1.960       .  S
Zn987       O992   2.025       .  S
Zn987       O996   2.013       .  S
Zn987      O1003   1.991       .  S
Zn988       O991   1.934       .  S
Zn988       O993   1.981       .  S
Zn988       O995   2.002       .  S
Zn988       O999   1.996       .  S
Zn989       O991   1.964       .  S
Zn989       O994   2.015       .  S
Zn989       O997   2.039       .  S
Zn989      O1000   2.015       .  S
Zn990       O991   1.974       .  S
Zn990       O998   2.038       .  S
Zn990      O1001   2.065       .  S
Zn990      O1002   2.027       .  S
O992       C1004   1.271       .  A
O993       C1005   1.269       .  A
O994       C1006   1.273       .  A
O995       C1004   1.270       .  A
O996       C1006   1.273       .  A
O997       C1005   1.274       .  A
O998       C1007   1.277       .  A
O999       C1008   1.271       .  A
O1000      C1007   1.275       .  A
O1001      C1008   1.278       .  A
O1002      C1009   1.275       .  A
O1003      C1009   1.273       .  A
C1004      C1431   1.468       .  S
C1005      C1388   1.464       .  S
C1006      C1631   1.476       .  S
C1007      C1398   1.481       .  S
C1008      C1501   1.473       .  S
C1009      C1461   1.478       .  S
Zn1010     O1014   1.968       .  S
Zn1010     O1015   2.016       .  S
Zn1010     O1019   2.035       .  S
Zn1010     O1026   2.025       .  S
Zn1011     O1014   1.964       .  S
Zn1011     O1016   2.030       .  S
Zn1011     O1018   2.044       .  S
Zn1011     O1022   2.036       .  S
Zn1012     O1017   1.977       .  S
Zn1012     O1020   2.001       .  S
Zn1012     O1023   2.011       .  S
Zn1013     O1014   1.943       .  S
Zn1013     O1021   2.017       .  S
Zn1013     O1024   2.013       .  S
Zn1013     O1025   1.994       .  S
O1015      C1027   1.275       .  A
O1018      C1027   1.279       .  A
O1019      C1029   1.274       .  A
O1020      C1028   1.271       .  A
O1022      C1031   1.277       .  A
O1023      C1030   1.272       .  A
O1024      C1031   1.274       .  A
O1025      C1032   1.272       .  A
O1026      C1032   1.274       .  A
C1027      C1401   1.475       .  S
C1028      C1621   1.476       .  S
C1030      C1368   1.481       .  S
C1031      C1551   1.481       .  S
C1032      C1378   1.477       .  S
Zn1033     O1037   1.930       .  S
Zn1033     O1038   1.993       .  S
Zn1033     O1042   2.007       .  S
Zn1033     O1049   1.981       .  S
Zn1034     O1037   1.978       .  S
Zn1034     O1039   2.028       .  S
Zn1034     O1041   2.062       .  S
Zn1034     O1045   2.049       .  S
Zn1035     O1037   1.958       .  S
Zn1035     O1040   2.034       .  S
Zn1035     O1043   1.983       .  S
Zn1035     O1046   2.013       .  S
Zn1036     O1037   1.954       .  S
Zn1036     O1044   1.998       .  S
Zn1036     O1047   2.006       .  S
Zn1036     O1048   2.027       .  S
O1038      C1050   1.271       .  A
O1039      C1051   1.275       .  A
O1040      C1052   1.272       .  A
O1041      C1050   1.278       .  A
O1042      C1052   1.270       .  A
O1043      C1051   1.273       .  A
O1044      C1053   1.271       .  A
O1045      C1054   1.278       .  A
O1046      C1053   1.273       .  A
O1047      C1054   1.273       .  A
O1048      C1055   1.273       .  A
O1049      C1055   1.270       .  A
C1050      C1308   1.471       .  S
C1051      C1348   1.475       .  S
C1052      C1341   1.474       .  S
C1053      C1318   1.473       .  S
C1054      C1328   1.488       .  S
C1055      C1481   1.460       .  S
Zn1056     O1060   1.963       .  S
Zn1056     O1061   2.006       .  S
Zn1056     O1065   1.996       .  S
Zn1057     O1060   1.959       .  S
Zn1057     O1062   2.021       .  S
Zn1057     O1064   2.002       .  S
Zn1058     O1060   1.961       .  S
Zn1058     O1063   2.024       .  S
Zn1058     O1066   2.039       .  S
Zn1058     O1069   2.059       .  S
Zn1059     O1060   1.910       .  S
Zn1059     O1067   2.000       .  S
O1062      C1074   1.276       .  A
O1063      C1075   1.276       .  A
O1065      C1075   1.273       .  A
O1066      C1074   1.279       .  A
O1067      C1076   1.272       .  A
O1068      C1077   1.276       .  A
O1069      C1076   1.276       .  A
O1070      C1077   1.271       .  A
O1071      C1078   1.273       .  A
O1072      C1078   1.273       .  A
C1073      C1491   1.476   1_554  S
C1074      C1331   1.487       .  S
C1075      C1601   1.471       .  S
C1076      C1288   1.476       .  S
C1077      C1298   1.476       .  S
C1078      C1651   1.476       .  S
Zn1079     O1083   1.973       .  S
Zn1079     O1084   2.055       .  S
Zn1079     O1088   2.041       .  S
Zn1079     O1095   2.037       .  S
Zn1080     O1083   1.966       .  S
Zn1080     O1085   2.038       .  S
Zn1080     O1087   2.004       .  S
Zn1080     O1091   2.036       .  S
Zn1081     O1083   1.940       .  S
Zn1081     O1086   1.983       .  S
Zn1081     O1089   1.974       .  S
Zn1081     O1092   1.995       .  S
Zn1082     O1083   1.949       .  S
Zn1082     O1090   2.033       .  S
Zn1082     O1093   1.992       .  S
Zn1082     O1094   2.010       .  S
O1084      C1096   1.279       .  A
O1085      C1097   1.275       .  A
O1086      C1098   1.270       .  A
O1087      C1096   1.274       .  A
O1088      C1098   1.275       .  A
O1089      C1097   1.270       .  A
O1090      C1099   1.274       .  A
O1091      C1100   1.275       .  A
O1092      C1099   1.269       .  A
O1093      C1100   1.272       .  A
O1094      C1101   1.274       .  A
O1095      C1101   1.277       .  A
C1096      C1278   1.479       .  S
C1097      C1268   1.473       .  S
C1098      C1371   1.482       .  S
C1099      C1561   1.479       .  S
C1100      C1511   1.478       .  S
C1101      C1591   1.480       .  S
Zn1102     O1106   1.899       .  S
Zn1102     O1107   1.973       .  S
Zn1102     O1111   1.974       .  S
Zn1102     O1118   1.978       .  S
Zn1103     O1106   1.956       .  S
Zn1103     O1108   2.016       .  S
Zn1103     O1110   2.054       .  S
Zn1103     O1114   2.006       .  S
Zn1104     O1106   1.965       .  S
Zn1104     O1109   2.078       .  S
Zn1104     O1112   2.044       .  S
Zn1104     O1115   2.019       .  S
Zn1105     O1106   1.968       .  S
Zn1105     O1113   2.008       .  S
Zn1105     O1116   2.016       .  S
Zn1105     O1117   2.056       .  S
O1107      C1119   1.269       .  A
O1108      C1120   1.276       .  A
O1109      C1121   1.278       .  A
O1110      C1119   1.275       .  A
O1111      C1121   1.269       .  A
O1112      C1120   1.278       .  A
O1113      C1122   1.275       .  A
O1114      C1123   1.274       .  A
O1115      C1122   1.276       .  A
O1116      C1123   1.274       .  A
O1117      C1124   1.275       .  A
O1118      C1124   1.270       .  A
C1119      C1258   1.472       .  S
C1120      C1281   1.481       .  S
C1121      C1641   1.478       .  S
C1122      C1321   1.472       .  S
C1123      C1381   1.479       .  S
C1124      C1301   1.479       .  S
Zn1125     O1129   1.966       .  S
Zn1125     O1130   2.001       .  S
Zn1125     O1134   2.034       .  S
Zn1125     O1141   2.032       .  S
Zn1126     O1129   1.973       .  S
Zn1126     O1131   2.030       .  S
Zn1126     O1133   2.055       .  S
Zn1126     O1137   2.048       .  S
Zn1127     O1129   1.948       .  S
Zn1127     O1132   1.985       .  S
Zn1127     O1135   1.987       .  S
Zn1127     O1138   2.014       .  S
Zn1128     O1129   1.941       .  S
Zn1128     O1136   2.017       .  S
Zn1128     O1139   2.006       .  S
Zn1128     O1140   1.980       .  S
O1130      C1142   1.273       .  A
O1131      C1143   1.275       .  A
O1132      C1144   1.271       .  A
O1133      C1142   1.279       .  A
O1134      C1144   1.274       .  A
O1135      C1143   1.271       .  A
O1136      C1145   1.273       .  A
O1137      C1146   1.278       .  A
O1138      C1145   1.271       .  A
O1139      C1146   1.273       .  A
O1140      C1147   1.271       .  A
O1141      C1147   1.275       .  A
C1142      C1248   1.479       .  S
C1143      C1238   1.478       .  S
C1144      C1691   1.474       .  S
C1145      C1448   1.481       .  S
C1146      C1311   1.483       .  S
C1147      C1421   1.473       .  S
Zn1148     O1152   1.913       .  S
Zn1148     O1164   1.965       .  S
Zn1149     O1152   1.965       .  S
Zn1149     O1154   2.012       .  S
Zn1149     O1160   2.027       .  S
Zn1150     O1152   1.970       .  S
Zn1150     O1158   2.011       .  S
Zn1150     O1161   1.997       .  S
Zn1151     O1152   1.981       .  S
Zn1151     O1159   2.027       .  S
Zn1151     O1162   2.035       .  S
Zn1151     O1163   2.083       .  S
O1153      C1165   1.270       .  A
O1155      C1167   1.273       .  A
O1156      C1165   1.275       .  A
O1157      C1167   1.269       .  A
O1159      C1168   1.276       .  A
O1160      C1169   1.277       .  A
O1161      C1168   1.274       .  A
O1162      C1169   1.277       .  A
O1163      C1170   1.278       .  A
O1164      C1170   1.267       .  A
C1165      C1678   1.476       .  S
C1166      C1228   1.480   1_554  S
C1167      C1261   1.474       .  S
C1168      C1271   1.478       .  S
C1169      C1251   1.480       .  S
C1170      C1291   1.475       .  S
Zn1171     O1175   1.936       .  S
Zn1171     O1176   1.978       .  S
Zn1171     O1180   1.998       .  S
Zn1171     O1187   1.966       .  S
Zn1172     O1175   1.975       .  S
Zn1172     O1177   2.048       .  S
Zn1172     O1179   2.047   1_455  S
Zn1172     O1183   2.065   1_455  S
Zn1173     O1175   1.939       .  S
Zn1173     O1178   2.021       .  S
Zn1173     O1181   2.001       .  S
Zn1173     O1184   1.967       .  S
Zn1174     O1175   1.970       .  S
Zn1174     O1182   2.044       .  S
Zn1174     O1185   2.002       .  S
Zn1174     O1186   2.037       .  S
O1176      C1188   1.270   1_455  A
O1177      C1189   1.278       .  A
O1178      C1190   1.271       .  A
O1179      C1188   1.277       .  A
O1180      C1190   1.269       .  A
O1181      C1189   1.273       .  A
O1182      C1191   1.276       .  A
O1183      C1192   1.281   1_655  A
O1184      C1191   1.270       .  A
O1185      C1192   1.274       .  A
O1186      C1193   1.275       .  A
O1187      C1193   1.269       .  A
C1188      C1531   1.481       .  S
C1189      C1411   1.486       .  S
C1190      C1391   1.478       .  S
C1191      C1358   1.473       .  S
C1192      C1218   1.489       .  S
C1193      C1351   1.472       .  S
Zn1194     O1198   1.947       .  S
Zn1194     O1199   1.989       .  S
Zn1194     O1203   2.019       .  S
Zn1194     O1210   2.000       .  S
Zn1195     O1198   1.970       .  S
Zn1195     O1200   2.043       .  S
Zn1195     O1202   2.046       .  S
Zn1195     O1206   2.022       .  S
Zn1196     O1198   1.935       .  S
Zn1196     O1201   1.998       .  S
Zn1196     O1204   1.980       .  S
Zn1196     O1207   2.002       .  S
Zn1197     O1198   1.966       .  S
Zn1197     O1205   2.045       .  S
Zn1197     O1208   2.047       .  S
Zn1197     O1209   2.042   1_655  S
O1199      C1211   1.272       .  A
O1200      C1212   1.277       .  A
O1201      C1213   1.272       .  A
O1202      C1211   1.276       .  A
O1203      C1213   1.273       .  A
O1204      C1212   1.270       .  A
O1205      C1214   1.277       .  A
O1206      C1215   1.276       .  A
O1207      C1214   1.272       .  A
O1208      C1215   1.281       .  A
O1209      C1216   1.276       .  A
O1210      C1216   1.271   1_655  A
C1211      C1541   1.478       .  S
C1212      C1231   1.479       .  S
C1213      C1241   1.478       .  S
C1214      C1441   1.485       .  S
C1215      C1221   1.489       .  S
C1216      C1338   1.476       .  S
C1217      C1222   1.398   1_554  A
C1217      H1223   1.083       .  S
C1218      C1219   1.405   1_455  A
C1219      C1220   1.403       .  A
C1219      H1224   1.083       .  S
C1220      H1225   1.083       .  S
C1221      C1222   1.404   1_655  A
C1222      H1226   1.083       .  S
C1227      H1233   1.083       .  S
C1228      C1229   1.408       .  A
C1229      C1230   1.401       .  A
C1229      H1234   1.083       .  S
C1230      C1231   1.404       .  A
C1230      H1235   1.083       .  S
C1231      C1232   1.406       .  A
C1232      H1236   1.083       .  S
C1237      C1238   1.405       .  A
C1237      C1242   1.393       .  A
C1237      H1243   1.083       .  S
C1238      C1239   1.406       .  A
C1239      C1240   1.400       .  A
C1239      H1244   1.083       .  S
C1240      C1241   1.406       .  A
C1240      H1245   1.083       .  S
C1241      C1242   1.404       .  A
C1242      H1246   1.083       .  S
C1247      C1248   1.404       .  A
C1247      C1252   1.403       .  A
C1247      H1253   1.083       .  S
C1248      C1249   1.406       .  A
C1249      C1250   1.398       .  A
C1249      H1254   1.083       .  S
C1250      C1251   1.403       .  A
C1250      H1255   1.083       .  S
C1251      C1252   1.407       .  A
C1252      H1256   1.083       .  S
C1257      C1258   1.401       .  A
C1257      C1262   1.388       .  A
C1257      H1263   1.084       .  S
C1258      C1259   1.406       .  A
C1259      C1260   1.408       .  A
C1259      H1264   1.083       .  S
C1260      C1261   1.407       .  A
C1260      H1265   1.083       .  S
C1261      C1262   1.401       .  A
C1262      H1266   1.084       .  S
C1267      C1268   1.403       .  A
C1267      C1272   1.390       .  A
C1267      H1273   1.083       .  S
C1268      C1269   1.404       .  A
C1269      C1270   1.402       .  A
C1269      H1274   1.083       .  S
C1270      C1271   1.408       .  A
C1270      H1275   1.083       .  S
C1271      C1272   1.404       .  A
C1272      H1276   1.083       .  S
C1277      C1278   1.405       .  A
C1277      C1282   1.404       .  A
C1277      H1283   1.083       .  S
C1278      C1279   1.405       .  A
C1279      C1280   1.397       .  A
C1279      H1284   1.083       .  S
C1280      C1281   1.404       .  A
C1280      H1285   1.083       .  S
C1281      C1282   1.407       .  A
C1282      H1286   1.083       .  S
C1287      C1288   1.401       .  A
C1287      C1292   1.394       .  A
C1287      H1293   1.084       .  S
C1288      C1289   1.407       .  A
C1289      C1290   1.408       .  A
C1289      H1294   1.083       .  S
C1290      C1291   1.405       .  A
C1290      H1295   1.083       .  S
C1291      C1292   1.404       .  A
C1292      H1296   1.084       .  S
C1297      C1298   1.402       .  A
C1297      C1302   1.388       .  A
C1297      H1303   1.084       .  S
C1298      C1299   1.406       .  A
C1299      C1300   1.409       .  A
C1299      H1304   1.083       .  S
C1300      C1301   1.409       .  A
C1300      H1305   1.083       .  S
C1301      C1302   1.402       .  A
C1302      H1306   1.084       .  S
C1307      C1308   1.404   1_655  A
C1307      C1312   1.400       .  A
C1307      H1313   1.083       .  S
C1308      C1309   1.401       .  A
C1309      C1310   1.401   1_455  A
C1309      H1314   1.083       .  S
C1310      C1311   1.408       .  A
C1310      H1315   1.083       .  S
C1311      C1312   1.405       .  A
C1312      H1316   1.083       .  S
C1317      C1318   1.404       .  A
C1317      C1322   1.396       .  A
C1317      H1323   1.083       .  S
C1318      C1319   1.405       .  A
C1319      C1320   1.395       .  A
C1319      H1324   1.083       .  S
C1320      C1321   1.403       .  A
C1320      H1325   1.083       .  S
C1321      C1322   1.405       .  A
C1322      H1326   1.083       .  S
C1327      C1328   1.408       .  A
C1327      C1332   1.398       .  A
C1327      H1333   1.083       .  S
C1328      C1329   1.406       .  A
C1329      C1330   1.402       .  A
C1329      H1334   1.083       .  S
C1330      C1331   1.409       .  A
C1330      H1335   1.083       .  S
C1331      C1332   1.404       .  A
C1332      H1336   1.083       .  S
C1337      C1338   1.406       .  A
C1337      C1342   1.401       .  A
C1337      H1343   1.083       .  S
C1338      C1339   1.404       .  A
C1339      C1340   1.399       .  A
C1339      H1344   1.083       .  S
C1340      C1341   1.404       .  A
C1340      H1345   1.083       .  S
C1341      C1342   1.403       .  A
C1342      H1346   1.083       .  S
C1347      C1348   1.407       .  A
C1347      C1352   1.402       .  A
C1347      H1353   1.083       .  S
C1348      C1349   1.403       .  A
C1349      C1350   1.387       .  A
C1349      H1354   1.083       .  S
C1350      C1351   1.403       .  A
C1350      H1355   1.083       .  S
C1351      C1352   1.404       .  A
C1352      H1356   1.083       .  S
C1357      C1358   1.402       .  A
C1357      C1362   1.385       .  A
C1357      H1363   1.084       .  S
C1358      C1359   1.406       .  A
C1359      C1360   1.406       .  A
C1359      H1364   1.083       .  S
C1360      C1361   1.408       .  A
C1360      H1365   1.083       .  S
C1361      C1362   1.402       .  A
C1367      C1368   1.408       .  A
C1367      C1372   1.401       .  A
C1367      H1373   1.083       .  S
C1368      C1369   1.403       .  A
C1369      C1370   1.394       .  A
C1369      H1374   1.083       .  S
C1370      C1371   1.407       .  A
C1370      H1375   1.083       .  S
C1371      C1372   1.405       .  A
C1372      H1376   1.083       .  S
C1377      C1378   1.405       .  A
C1377      C1382   1.400       .  A
C1377      H1383   1.083       .  S
C1378      C1379   1.404       .  A
C1379      C1380   1.392       .  A
C1379      H1384   1.083       .  S
C1380      C1381   1.405       .  A
C1380      H1385   1.083       .  S
C1381      C1382   1.407       .  A
C1382      H1386   1.083       .  S
C1387      C1388   1.401       .  A
C1387      C1392   1.395       .  A
C1387      H1393   1.084       .  S
C1388      C1389   1.402       .  A
C1389      C1390   1.400       .  A
C1389      H1394   1.083       .  S
C1390      C1391   1.406       .  A
C1390      H1395   1.083       .  S
C1391      C1392   1.406       .  A
C1392      H1396   1.083       .  S
C1397      C1398   1.406       .  A
C1397      C1402   1.399       .  A
C1397      H1403   1.083       .  S
C1398      C1399   1.406       .  A
C1399      C1400   1.401       .  A
C1399      H1404   1.083       .  S
C1400      C1401   1.403       .  A
C1400      H1405   1.083       .  S
C1401      C1402   1.403       .  A
C1402      H1406   1.083       .  S
C1407      C1408   1.408       .  A
C1407      C1412   1.400       .  A
C1407      H1413   1.083       .  S
C1408      C1409   1.405   1_655  A
C1409      C1410   1.400       .  A
C1409      H1414   1.083       .  S
C1410      C1411   1.409       .  A
C1410      H1415   1.083       .  S
C1411      C1412   1.405   1_455  A
C1412      H1416   1.083       .  S
C1417      C1418   1.406       .  A
C1417      C1422   1.403       .  A
C1417      H1423   1.083       .  S
C1418      C1419   1.403       .  A
C1419      C1420   1.388       .  A
C1419      H1424   1.083       .  S
C1420      C1421   1.403       .  A
C1420      H1425   1.083       .  S
C1421      C1422   1.405       .  A
C1422      H1426   1.083       .  S
C1427      C1428   1.403       .  A
C1427      C1432   1.397       .  A
C1427      H1433   1.083       .  S
C1428      C1429   1.406       .  A
C1429      C1430   1.399       .  A
C1429      H1434   1.083       .  S
C1430      C1431   1.401       .  A
C1430      H1435   1.083       .  S
C1431      C1432   1.403       .  A
C1432      H1436   1.084       .  S
C1437      C1438   1.404   1_655  A
C1437      C1442   1.399       .  A
C1437      H1443   1.083       .  S
C1438      C1439   1.408       .  A
C1439      C1440   1.400       .  A
C1439      H1444   1.083       .  S
C1440      C1441   1.405   1_455  A
C1440      H1445   1.083       .  S
C1441      C1442   1.408       .  A
C1442      H1446   1.083       .  S
C1447      C1448   1.408       .  A
C1447      C1452   1.402       .  A
C1447      H1453   1.083       .  S
C1448      C1449   1.403       .  A
C1449      C1450   1.395       .  A
C1449      H1454   1.083       .  S
C1450      C1451   1.407       .  A
C1450      H1455   1.083       .  S
C1451      C1452   1.406       .  A
C1452      H1456   1.083       .  S
C1457      C1458   1.403       .  A
C1457      C1462   1.401       .  A
C1457      H1463   1.083       .  S
C1458      C1459   1.402       .  A
C1459      C1460   1.390       .  A
C1459      H1464   1.084   1_565  S
C1460      C1461   1.405       .  A
C1460      H1465   1.083       .  S
C1461      C1462   1.407       .  A
C1462      H1466   1.083       .  S
C1467      C1468   1.404   1_655  A
C1467      C1472   1.401   1_546  A
C1467      H1473   1.083       .  S
C1469      C1470   1.399       .  A
C1469      H1474   1.083       .  S
C1470      C1471   1.404   1_455  A
C1470      H1475   1.083       .  S
C1472      H1476   1.083   1_565  S
C1477      C1478   1.405       .  A
C1477      C1482   1.398       .  A
C1477      H1483   1.083       .  S
C1478      C1479   1.407       .  A
C1479      C1480   1.394       .  A
C1479      H1484   1.083       .  S
C1480      C1481   1.399       .  A
C1480      H1485   1.084       .  S
C1481      C1482   1.402       .  A
C1482      H1486   1.084       .  S
C1487      C1488   1.404       .  A
C1487      C1492   1.389       .  A
C1487      H1493   1.083       .  S
C1488      C1489   1.404       .  A
C1489      C1490   1.401       .  A
C1489      H1494   1.083       .  S
C1490      C1491   1.408       .  A
C1490      H1495   1.083       .  S
C1491      C1492   1.403       .  A
C1492      H1496   1.083       .  S
C1497      C1498   1.408       .  A
C1497      C1502   1.403       .  A
C1497      H1503   1.083       .  S
C1498      C1499   1.409       .  A
C1499      C1500   1.400   1_655  A
C1499      H1504   1.083       .  S
C1500      C1501   1.401       .  A
C1500      H1505   1.083       .  S
C1501      C1502   1.404   1_455  A
C1502      H1506   1.083       .  S
C1507      C1508   1.403       .  A
C1507      C1512   1.390       .  A
C1507      H1513   1.083       .  S
C1508      C1509   1.406       .  A
C1509      C1510   1.405       .  A
C1509      H1514   1.083       .  S
C1510      C1511   1.407       .  A
C1510      H1515   1.083       .  S
C1511      C1512   1.403       .  A
C1512      H1516   1.083       .  S
C1517      C1518   1.403       .  A
C1517      C1522   1.393       .  A
C1517      H1523   1.083       .  S
C1518      C1519   1.408       .  A
C1519      C1520   1.402       .  A
C1519      H1524   1.083       .  S
C1520      C1521   1.405       .  A
C1520      H1525   1.083       .  S
C1521      C1522   1.406       .  A
C1522      H1526   1.083       .  S
C1527      C1528   1.403       .  A
C1527      C1532   1.394       .  A
C1527      H1533   1.083       .  S
C1528      C1529   1.408       .  A
C1529      C1530   1.401       .  A
C1529      H1534   1.083       .  S
C1530      C1531   1.405       .  A
C1530      H1535   1.083       .  S
C1531      C1532   1.407       .  A
C1532      H1536   1.083       .  S
C1537      C1538   1.407       .  A
C1537      C1542   1.406       .  A
C1537      H1543   1.083       .  S
C1538      C1539   1.405       .  A
C1539      C1540   1.390       .  A
C1539      H1544   1.083       .  S
C1540      C1541   1.403       .  A
C1540      H1545   1.083       .  S
C1541      C1542   1.406       .  A
C1542      H1546   1.083       .  S
C1547      C1548   1.403       .  A
C1547      C1552   1.403       .  A
C1547      H1553   1.083       .  S
C1548      C1549   1.403       .  A
C1549      C1550   1.398       .  A
C1549      H1554   1.083       .  S
C1550      C1551   1.405       .  A
C1550      H1555   1.083       .  S
C1551      C1552   1.408       .  A
C1552      H1556   1.083       .  S
C1557      C1558   1.403       .  A
C1557      C1562   1.400       .  A
C1557      H1563   1.083       .  S
C1558      C1559   1.401       .  A
C1559      C1560   1.397       .  A
C1559      H1564   1.083       .  S
C1560      C1561   1.407       .  A
C1560      H1565   1.083       .  S
C1561      C1562   1.405       .  A
C1562      H1566   1.083       .  S
C1567      C1568   1.405       .  A
C1567      C1572   1.390       .  A
C1567      H1573   1.083       .  S
C1569      H1574   1.083       .  S
C1570      C1571   1.406       .  A
C1571      C1572   1.404       .  A
C1572      H1576   1.083       .  S
C1577      C1578   1.401       .  A
C1577      C1582   1.400       .  A
C1577      H1583   1.083       .  S
C1578      C1579   1.406       .  A
C1579      C1580   1.401       .  A
C1579      H1584   1.083       .  S
C1580      C1581   1.402       .  A
C1580      H1585   1.083       .  S
C1581      C1582   1.407       .  A
C1582      H1586   1.083       .  S
C1587      C1588   1.401       .  A
C1587      C1592   1.401       .  A
C1587      H1593   1.083       .  S
C1588      C1589   1.403       .  A
C1589      C1590   1.398       .  A
C1589      H1594   1.084       .  S
C1590      C1591   1.405       .  A
C1590      H1595   1.083       .  S
C1591      C1592   1.408       .  A
C1592      H1596   1.083       .  S
C1597      C1598   1.405       .  A
C1597      C1602   1.397       .  A
C1597      H1603   1.083       .  S
C1598      C1599   1.402       .  A
C1599      C1600   1.395       .  A
C1599      H1604   1.083   1_545  S
C1600      C1601   1.405       .  A
C1600      H1605   1.083       .  S
C1601      C1602   1.403       .  A
C1602      H1606   1.083       .  S
C1607      C1608   1.407       .  A
C1607      C1612   1.407       .  A
C1607      H1613   1.083       .  S
C1608      C1609   1.402       .  A
C1609      C1610   1.390       .  A
C1609      H1614   1.084       .  S
C1610      C1611   1.402       .  A
C1610      H1615   1.084       .  S
C1611      C1612   1.405       .  A
C1612      H1616   1.083       .  S
C1617      C1618   1.402       .  A
C1617      C1622   1.400       .  A
C1617      H1623   1.083       .  S
C1618      C1619   1.402       .  A
C1619      C1620   1.399       .  A
C1619      H1624   1.083       .  S
C1620      C1621   1.405       .  A
C1620      H1625   1.083       .  S
C1621      C1622   1.406       .  A
C1622      H1626   1.083       .  S
C1627      C1628   1.405       .  A
C1627      C1632   1.397       .  A
C1627      H1633   1.083       .  S
C1628      C1629   1.405       .  A
C1629      C1630   1.398       .  A
C1629      H1634   1.083       .  S
C1630      C1631   1.405       .  A
C1630      H1635   1.083       .  S
C1631      C1632   1.404       .  A
C1632      H1636   1.083       .  S
C1637      C1638   1.402       .  A
C1637      C1642   1.392       .  A
C1637      H1643   1.084       .  S
C1638      C1639   1.407       .  A
C1639      C1640   1.411       .  A
C1639      H1644   1.083       .  S
C1640      C1641   1.408       .  A
C1640      H1645   1.083       .  S
C1641      C1642   1.402       .  A
C1642      H1646   1.084       .  S
C1647      C1648   1.404       .  A
C1647      C1652   1.408       .  A
C1647      H1653   1.083       .  S
C1648      C1649   1.402       .  A
C1649      C1650   1.389       .  A
C1649      H1654   1.084       .  S
C1650      C1651   1.401       .  A
C1650      H1655   1.084       .  S
C1651      C1652   1.410       .  A
C1652      H1656   1.083       .  S
C1657      C1658   1.406       .  A
C1657      C1662   1.399       .  A
C1657      H1663   1.083       .  S
C1658      C1659   1.404       .  A
C1659      C1660   1.396       .  A
C1659      H1664   1.083   1_565  S
C1660      C1661   1.404       .  A
C1660      H1665   1.083       .  S
C1661      C1662   1.404       .  A
C1662      H1666   1.083       .  S
C1667      C1668   1.408   1_565  A
C1667      C1672   1.400       .  A
C1667      H1673   1.083       .  S
C1668      C1669   1.405       .  A
C1669      C1670   1.399       .  A
C1669      H1674   1.083       .  S
C1670      C1671   1.408   1_545  A
C1670      H1675   1.083       .  S
C1671      C1672   1.405       .  A
C1672      H1676   1.083       .  S
C1677      C1678   1.402       .  A
C1677      C1682   1.388       .  A
C1677      H1683   1.084       .  S
C1678      C1679   1.408       .  A
C1679      C1680   1.408       .  A
C1679      H1684   1.083       .  S
C1680      C1681   1.406       .  A
C1680      H1685   1.083       .  S
C1681      C1682   1.401       .  A
C1682      H1686   1.084       .  S
C1687      C1688   1.407       .  A
C1687      C1692   1.403       .  A
C1687      H1693   1.083       .  S
C1688      C1689   1.406       .  A
C1689      C1690   1.390       .  A
C1689      H1694   1.083       .  S
C1690      C1691   1.402       .  A
C1690      H1695   1.083       .  S
C1691      C1692   1.405       .  A
C1692      H1696   1.083       .  S
