geometry optimzed in LAMMPS
_audit_creation_date              2020-12-01 
_audit_creation_method            'lammps2cif' 
_symmetry_space_group_name_H-M    'P1' 
_symmetry_Int_Tables_number       1 
_symmetry_cell_setting            triclinic 
loop_ 
_symmetry_equiv_pos_as_xyz 
  x,y,z 
_cell_length_a                    60.10254904 
_cell_length_b                    60.12074595901698 
_cell_length_c                    31.31572229762231 
_cell_angle_alpha                 89.94612549697993 
_cell_angle_beta                  90.03411840806432 
_cell_angle_gamma                 90.15838520457943 
loop_ 
_atom_site_label 
_atom_site_type_symbol 
_atom_site_fract_x 
_atom_site_fract_y 
_atom_site_fract_z 
_atom_site_charge 
O1          O  0.48211012  0.93192940  0.25793401    -0.85800
O2          O  0.46126197  0.94491968  0.18564937    -0.82800
C3          C  0.44670907  0.94986731  0.15858799     0.97700
O4          O  0.42637585  0.95080271  0.16939528    -0.82900
O5          O  0.41679829  0.90761429  0.19185464    -0.85500
C6          C  0.41630613  0.88948054  0.21189613     1.02200
O7          O  0.42070342  0.88900503  0.25160115    -0.78300
O8          O  0.46482948  0.89999737  0.25507349    -0.78500
C9          C  0.48214414  0.91137768  0.24907687     1.02100
O10         O  0.45428615  0.96228392  0.30528356    -0.85800
O11         O  0.43678633  0.97884432  0.23041147    -0.82900
C12         C  0.41610431  0.98141142  0.23694913     0.97700
O13         O  0.40420224  0.96488582  0.24641663    -0.82900
O14         O  0.39091289  0.92187102  0.26403578    -0.85500
C15         C  0.39331203  0.91907433  0.30400328     1.02200
O16         O  0.41246854  0.91974149  0.32042628    -0.78300
O17         O  0.45754965  0.92821941  0.32969143    -0.78500
C18         C  0.45881748  0.94916412  0.33537488     1.02100
Cr19       Cr  0.45706489  0.95315298  0.24552646     1.93700
Cr20       Cr  0.41125816  0.93607124  0.22026958     1.93200
Cr21       Cr  0.43877460  0.91087298  0.28690819     1.39100
O22         O  0.43556544  0.93342841  0.25128062    -1.23500
O23         O  0.01038736  0.05543648  0.75752438    -0.85800
O24         O  0.03116208  0.04312491  0.68509878    -0.82800
C25         C  0.04564231  0.03907544  0.65738382     0.97700
O26         O  0.06603485  0.03809176  0.66776369    -0.82900
O27         O  0.07526230  0.08115625  0.69147264    -0.85500
C28         C  0.07542572  0.09916422  0.71194599     1.02200
O29         O  0.07130250  0.09915111  0.75178490    -0.78300
O30         O  0.02749341  0.08751068  0.75604380    -0.78500
C31         C  0.01024981  0.07611898  0.74972182     1.02100
O32         O  0.03858037  0.02487648  0.80435864    -0.85800
O33         O  0.05606702  0.00914788  0.72876563    -0.82900
C34         C  0.07680245  0.00656248  0.73465303     0.97700
O35         O  0.08886978  0.02310992  0.74349670    -0.82900
O36         O  0.10160435  0.06645834  0.76288620    -0.85500
C37         C  0.09924090  0.06921826  0.80287385     1.02200
O38         O  0.08022605  0.06773185  0.81953143    -0.78300
O39         O  0.03542457  0.05873829  0.82962351    -0.78500
C40         C  0.03426909  0.03775325  0.83493122     1.02100
Cr41       Cr  0.03563974  0.03450815  0.74466445     1.93700
Cr42       Cr  0.08124410  0.05235292  0.71891121     1.93200
Cr43       Cr  0.05375154  0.07661774  0.78685547     1.39100
O44         O  0.05702583  0.05438987  0.75053172    -1.23500
O45         O  0.18509670  0.75732672  0.51011417    -0.85800
O46         O  0.19811991  0.77740314  0.43781643    -0.82800
C47         C  0.20197681  0.79155378  0.40937489     0.97700
O48         O  0.20226007  0.81213564  0.41868304    -0.82900
O49         O  0.15886090  0.82026079  0.44106023    -0.85500
C50         C  0.14082209  0.82087197  0.46129230     1.02200
O51         O  0.14064380  0.81732021  0.50130180    -0.78300
O52         O  0.15277995  0.77376210  0.50637942    -0.78500
C53         C  0.16456778  0.75679529  0.50071204     1.02100
O54         O  0.21459017  0.78679456  0.55712792    -0.85800
O55         O  0.23099069  0.80401460  0.48164792    -0.82900
C56         C  0.23277785  0.82492670  0.48661994     0.97700
O57         O  0.21575155  0.83635277  0.49435399    -0.82900
O58         O  0.17233109  0.84795427  0.51220596    -0.85500
C59         C  0.16978204  0.84576842  0.55236970     1.02200
O60         O  0.17147842  0.82687003  0.56939894    -0.78300
O61         O  0.18054832  0.78234588  0.58074301    -0.78500
C62         C  0.20146198  0.78197311  0.58703626     1.02100
Cr63       Cr  0.20587074  0.78289658  0.49731939     1.93700
Cr64       Cr  0.18716188  0.82754565  0.46898384     1.93200
Cr65       Cr  0.16298019  0.80021308  0.53718188     1.39100
O66         O  0.18545096  0.80368899  0.50149302    -1.23500
O67         O  0.96479489  0.90020983  0.25561362    -0.85800
O68         O  0.92106193  0.88893345  0.26029966    -0.82800
C69         C  0.91697057  0.88950821  0.30014200     0.97700
O70         O  0.91738232  0.90773749  0.31977660    -0.82900
O71         O  0.92652885  0.95110163  0.34117859    -0.85500
C72         C  0.94694192  0.95026416  0.35159791     1.02200
O73         O  0.96131006  0.94540550  0.32421595    -0.78300
O74         O  0.98218874  0.93208532  0.25275090    -0.78500
C75         C  0.98213805  0.91148308  0.26156161     1.02100
O76         O  0.95717273  0.92812908  0.18048530    -0.85800
O77         O  0.91237672  0.91948956  0.19101227    -0.82900
C78         C  0.89335554  0.91798179  0.20759575     0.97700
O79         O  0.89093333  0.92107469  0.24750153    -0.82900
O80         O  0.90374858  0.96456471  0.26416708    -0.85500
C81         C  0.91550737  0.98127541  0.27313051     1.02200
O82         O  0.93630756  0.97897986  0.27909997    -0.78300
O83         O  0.95401510  0.96222888  0.20448328    -0.78500
C84         C  0.95838148  0.94906705  0.17442968     1.02100
Cr85       Cr  0.93873321  0.91084091  0.22409163     1.93700
Cr86       Cr  0.91131160  0.93594402  0.29074614     1.93200
Cr87       Cr  0.95691037  0.95335242  0.26443186     1.39100
O88         O  0.93552429  0.93346821  0.25936067    -1.23500
O89         O  0.84032775  0.21325843  0.50354521    -0.85800
O90         O  0.85229483  0.16941638  0.50738314    -0.82800
C91         C  0.85257618  0.16580046  0.54733741     0.97700
O92         O  0.83480259  0.16646156  0.56840596    -0.82900
O93         O  0.79186808  0.17503387  0.59286144    -0.85500
C94         C  0.79251590  0.19559606  0.60217692     1.02200
O95         O  0.79583744  0.20976477  0.57350916    -0.78300
O96         O  0.80802839  0.22974282  0.50054077    -0.78500
C97         C  0.82859605  0.23027291  0.50952573     1.02100
O98         O  0.81173451  0.20485995  0.43015932    -0.85800
O99         O  0.82071932  0.16012540  0.44061777    -0.82900
C100        C  0.82210460  0.14117648  0.45767276     0.97700
O101        O  0.82002574  0.13907500  0.49792683    -0.82900
O102        O  0.77712521  0.15104496  0.51779363    -0.85500
C103        C  0.76025511  0.16258510  0.52602842     1.02200
O104        O  0.76222955  0.18345289  0.53119242    -0.78300
O105        O  0.77787163  0.20051862  0.45482578    -0.78500
C106        C  0.79077065  0.20544582  0.42458590     1.02100
Cr107      Cr  0.82967619  0.18679133  0.47276637     1.93700
Cr108      Cr  0.80606900  0.15954545  0.54183902     1.93200
Cr109      Cr  0.78730896  0.20432595  0.51435001     1.39100
O110        O  0.80756206  0.18339679  0.50930484    -1.23500
O111        O  0.15288894  0.27710959  0.50278065    -0.85800
O112        O  0.14321860  0.32145000  0.50649379    -0.82800
C113        C  0.14318457  0.32558318  0.54633965     0.97700
O114        O  0.16094196  0.32405898  0.56744120    -0.82900
O115        O  0.20393049  0.31386509  0.59136768    -0.85500
C116        C  0.20275173  0.29346099  0.60164569     1.02200
O117        O  0.19765435  0.27920924  0.57413251    -0.78300
O118        O  0.18425793  0.25885909  0.50188100    -0.78500
C119        C  0.16353220  0.25948175  0.50961818     1.02100
O120        O  0.18223403  0.28383717  0.42941601    -0.85800
O121        O  0.17542885  0.32895397  0.43952188    -0.82900
C122        C  0.17424854  0.34797837  0.45615750     0.97700
O123        O  0.17649065  0.35021745  0.49630411    -0.82900
O124        O  0.21913230  0.33636837  0.51555830    -0.85500
C125        C  0.23543262  0.32409128  0.52436925     1.02200
O126        O  0.23244650  0.30336722  0.53027969    -0.78300
O127        O  0.21608220  0.28615294  0.45507258    -0.78500
C128        C  0.20319086  0.28213913  0.42436001     1.02100
Cr129      Cr  0.16504414  0.30289057  0.47190925     1.93700
Cr130      Cr  0.18990708  0.32943996  0.54032137     1.93200
Cr131      Cr  0.20632225  0.28346420  0.51460102     1.39100
O132        O  0.18718904  0.30536313  0.50863525    -1.23500
O133        O  0.02787598  0.58709421  0.25401455    -0.85800
O134        O  0.07196097  0.59838316  0.25760748    -0.82800
C135        C  0.07612856  0.59830965  0.29735974     0.97700
O136        O  0.07530888  0.58040408  0.31813134    -0.82900
O137        O  0.06628174  0.53705953  0.34101277    -0.85500
C138        C  0.04586681  0.53755243  0.35126892     1.02200
O139        O  0.03136505  0.54193109  0.32374087    -0.78300
O140        O  0.01081463  0.55499232  0.25125117    -0.78500
C141        C  0.01058212  0.57562504  0.25963102     1.02100
O142        O  0.03554874  0.55892556  0.17996603    -0.85800
O143        O  0.08044108  0.56731794  0.18988900    -0.82900
C144        C  0.09947812  0.56854562  0.20662280     0.97700
O145        O  0.10178090  0.56606360  0.24669096    -0.82900
O146        O  0.08919237  0.52296734  0.26503337    -0.85500
C147        C  0.07744679  0.50619522  0.27363010     1.02200
O148        O  0.05663597  0.50839993  0.27933745    -0.78300
O149        O  0.03918739  0.52488420  0.20406536    -0.78500
C150        C  0.03456473  0.53802041  0.17403548     1.02100
Cr151      Cr  0.05407119  0.57630375  0.22273690     1.93700
Cr152      Cr  0.08144584  0.55180223  0.29036996     1.93200
Cr153      Cr  0.03603998  0.53389816  0.26392625     1.39100
O154        O  0.05730209  0.55391399  0.25871249    -1.23500
O155        O  0.98289993  0.43353528  0.76069583    -0.85800
O156        O  0.96275982  0.44644774  0.68849690    -0.82800
C157        C  0.94847533  0.44979189  0.66007956     0.97700
O158        O  0.92790873  0.44996260  0.66939175    -0.82900
O159        O  0.91944519  0.40661618  0.69190592    -0.85500
C160        C  0.91868170  0.38862434  0.71234672     1.02200
O161        O  0.92293265  0.38842976  0.75208477    -0.78300
O162        O  0.96685936  0.40098777  0.75598833    -0.78500
C163        C  0.98371633  0.41312560  0.75053373     1.02100
O164        O  0.95293859  0.46255454  0.80776282    -0.85800
O165        O  0.93614315  0.47905466  0.73221122    -0.82900
C166        C  0.91526564  0.48075012  0.73745451     0.97700
O167        O  0.90384272  0.46363453  0.74493688    -0.82900
O168        O  0.89234231  0.42041947  0.76322307    -0.85500
C169        C  0.89466653  0.41794281  0.80331361     1.02200
O170        O  0.91369482  0.41902972  0.82010786    -0.78300
O171        O  0.95819486  0.42857054  0.83092429    -0.78500
C172        C  0.95782612  0.44944559  0.83763334     1.02100
Cr173      Cr  0.95719860  0.45403983  0.74794113     1.93700
Cr174      Cr  0.91256369  0.43501873  0.71973497     1.93200
Cr175      Cr  0.94030022  0.41084115  0.78744340     1.39100
O176        O  0.93653811  0.43336817  0.75193331    -1.23500
O177        O  0.33974175  0.71374242  0.00277259    -0.85800
O178        O  0.35215782  0.67012762  0.00603823    -0.82800
C179        C  0.35240447  0.66621550  0.04593867     0.97700
O180        O  0.33458550  0.66662033  0.06687295    -0.82900
O181        O  0.29139759  0.67409694  0.09143143    -0.85500
C182        C  0.29163621  0.69457591  0.10151254     1.02200
O183        O  0.29527600  0.70901894  0.07351029    -0.78300
O184        O  0.30725447  0.72999577  0.00137804    -0.78500
C185        C  0.32797304  0.73067189  0.00906677     1.02100
O186        O  0.31109721  0.70571491  0.92964754    -0.85800
O187        O  0.32055832  0.66100664  0.93885249    -0.82900
C188        C  0.32259487  0.64197848  0.95522329     0.97700
O189        O  0.32057446  0.63946612  0.99542794    -0.82900
O190        O  0.27731146  0.65054594  0.01553543    -0.85500
C191        C  0.26032000  0.66180985  0.02431269     1.02200
O192        O  0.26204128  0.68268012  0.02995363    -0.78300
O193        O  0.27738416  0.70085322  0.95464643    -0.78500
C194        C  0.29010072  0.70633565  0.92452248     1.02100
Cr195      Cr  0.32929282  0.68745050  0.97167280     1.93700
Cr196      Cr  0.30608341  0.65933708  0.03995688     1.93200
Cr197      Cr  0.28682587  0.70412992  0.01413992     1.39100
O198        O  0.30727956  0.68350923  0.00823157    -1.23500
O199        O  0.68682768  0.25758027  0.00954028    -0.85800
O200        O  0.69909036  0.27838658  0.93705860    -0.82800
C201        C  0.70317656  0.29276520  0.90912123     0.97700
O202        O  0.70337686  0.31327351  0.91901190    -0.82900
O203        O  0.66006315  0.32144524  0.94205967    -0.85500
C204        C  0.64209052  0.32191607  0.96251790     1.02200
O205        O  0.64193904  0.31750846  0.00222512    -0.78300
O206        O  0.65437391  0.27372253  0.00622932    -0.78500
C207        C  0.66623371  0.25674325  0.00082916     1.02100
O208        O  0.71639549  0.28703099  0.05620832    -0.85800
O209        O  0.73219512  0.30463078  0.98072511    -0.82900
C210        C  0.73402271  0.32547076  0.98640086     0.97700
O211        O  0.71708780  0.33679901  0.99521537    -0.82900
O212        O  0.67377822  0.34840649  0.01375144    -0.85500
C213        C  0.67123693  0.34596020  0.05384351     1.02200
O214        O  0.67276411  0.32690822  0.07035933    -0.78300
O215        O  0.68247536  0.28241540  0.08045093    -0.78500
C216        C  0.70344002  0.28210196  0.08632997     1.02100
Cr217      Cr  0.70726018  0.28342125  0.99655711     1.93700
Cr218      Cr  0.68843952  0.32830413  0.96987921     1.93200
Cr219      Cr  0.66448190  0.30028636  0.03746532     1.39100
O220        O  0.68680752  0.30414732  0.00163691    -1.23500
O221        O  0.46582991  0.40094149  0.75706232    -0.85800
O222        O  0.42173400  0.39001458  0.76003957    -0.82800
C223        C  0.41695366  0.39065141  0.79960787     0.97700
O224        O  0.41738848  0.40885493  0.81928116    -0.82900
O225        O  0.42702221  0.45167781  0.84184172    -0.85500
C226        C  0.44722307  0.44998270  0.85322599     1.02200
O227        O  0.46195929  0.44571142  0.82616451    -0.78300
O228        O  0.48326136  0.43282471  0.75472144    -0.78500
C229        C  0.48316701  0.41221437  0.76324130     1.02100
O230        O  0.45912527  0.42924635  0.68227066    -0.85800
O231        O  0.41412970  0.42090636  0.69075779    -0.82900
C232        C  0.39490763  0.41981505  0.70659667     0.97700
O233        O  0.39208467  0.42298006  0.74633756    -0.82900
O234        O  0.40528692  0.46615695  0.76422203    -0.85500
C235        C  0.41724710  0.48268342  0.77347044     1.02200
O236        O  0.43785216  0.47997043  0.78089876    -0.78300
O237        O  0.45587652  0.46335187  0.70640738    -0.78500
C238        C  0.46050780  0.45019664  0.67645446     1.02100
Cr239      Cr  0.44006081  0.41191565  0.72481547     1.93700
Cr240      Cr  0.41213852  0.43725184  0.79053000     1.93200
Cr241      Cr  0.45817888  0.45415973  0.76634677     1.39100
O242        O  0.43666160  0.43451136  0.76016563    -1.23500
O243        O  0.30992617  0.22969261  0.01114653    -0.85800
O244        O  0.29704672  0.21027390  0.93764082    -0.82800
C245        C  0.29274122  0.19625615  0.90919452     0.97700
O246        O  0.29190693  0.17569212  0.91834813    -0.82900
O247        O  0.33494054  0.16599950  0.94168620    -0.85500
C248        C  0.35278090  0.16460820  0.96251405     1.02200
O249        O  0.35279357  0.16836198  0.00247265    -0.78300
O250        O  0.34181746  0.21247842  0.00774735    -0.78500
C251        C  0.33053130  0.22985384  0.00245376     1.02100
O252        O  0.27918052  0.20090481  0.05642340    -0.85800
O253        O  0.26293653  0.18460586  0.98000719    -0.82900
C254        C  0.26040754  0.16374688  0.98462369     0.97700
O255        O  0.27698510  0.15173545  0.99286145    -0.82900
O256        O  0.31989333  0.13870864  0.01177079    -0.85500
C257        C  0.32221140  0.14052376  0.05198267     1.02200
O258        O  0.32115295  0.15935379  0.06948515    -0.78300
O259        O  0.31311533  0.20415555  0.08137716    -0.78500
C260        C  0.29214470  0.20522348  0.08690882     1.02100
Cr261      Cr  0.28858992  0.20480410  0.99693444     1.93700
Cr262      Cr  0.30611593  0.15968555  0.96862851     1.93200
Cr263      Cr  0.33062126  0.18602390  0.03791410     1.39100
O264        O  0.30833336  0.18335896  0.00149323    -1.23500
O265        O  0.52837714  0.08656384  0.75380791    -0.85800
O266        O  0.57250759  0.09797887  0.75886779    -0.82800
C267        C  0.57657687  0.09735992  0.79871528     0.97700
O268        O  0.57530539  0.07921424  0.81854406    -0.82900
O269        O  0.56598970  0.03583799  0.83955771    -0.85500
C270        C  0.54546605  0.03635982  0.84914756     1.02200
O271        O  0.53118419  0.04049565  0.82105579    -0.78300
O272        O  0.51129827  0.05454437  0.74885529    -0.78500
C273        C  0.51108803  0.07500988  0.75879000     1.02100
O274        O  0.53641217  0.05922228  0.67839499    -0.85800
O275        O  0.58113408  0.06749110  0.68984441    -0.82900
C276        C  0.60011877  0.06829245  0.70681992     0.97700
O277        O  0.60225798  0.06561018  0.74689860    -0.82900
O278        O  0.58962727  0.02243892  0.76347636    -0.85500
C279        C  0.57785288  0.00558446  0.77112935     1.02200
O280        O  0.55700141  0.00770013  0.77625765    -0.78300
O281        O  0.54047990  0.02500373  0.70115892    -0.78500
C282        C  0.53604526  0.03836095  0.67143314     1.02100
Cr283      Cr  0.55468801  0.07621321  0.72251419     1.93700
Cr284      Cr  0.58162822  0.05096822  0.78974193     1.93200
Cr285      Cr  0.53649971  0.03327566  0.76118718     1.39100
O286        O  0.55771232  0.05342402  0.75760907    -1.23500
O287        O  0.65170633  0.77585444  0.00206911    -0.85800
O288        O  0.64167073  0.82003192  0.00727326    -0.82800
C289        C  0.64191717  0.82362340  0.04727302     0.97700
O290        O  0.65984690  0.82204217  0.06775962    -0.82900
O291        O  0.70284814  0.81177665  0.09038450    -0.85500
C292        C  0.70177483  0.79121167  0.09966615     1.02200
O293        O  0.69736297  0.77723597  0.07118911    -0.78300
O294        O  0.68328716  0.75803783  0.99846924    -0.78500
C295        C  0.66272113  0.75834162  0.00761728     1.02100
O296        O  0.68003266  0.78327176  0.92786708    -0.85800
O297        O  0.67319398  0.82830287  0.93964968    -0.82900
C298        C  0.67228542  0.84718231  0.95695927     0.97700
O299        O  0.67474480  0.84908094  0.99714662    -0.82900
O300        O  0.71756593  0.83551014  0.01498447    -0.85500
C301        C  0.73405211  0.82324243  0.02235485     1.02200
O302        O  0.73128126  0.80244521  0.02738879    -0.78300
O303        O  0.71415195  0.78637317  0.95177047    -0.78500
C304        C  0.70092717  0.78210398  0.92170942     1.02100
Cr305      Cr  0.66326486  0.80193230  0.97151471     1.93700
Cr306      Cr  0.68855178  0.82795907  0.04016165     1.93200
Cr307      Cr  0.70523670  0.78257883  0.01157304     1.39100
O308        O  0.68576688  0.80426308  0.00753415    -1.23500
O309        O  0.80956175  0.72891616  0.50945632    -0.85800
O310        O  0.79645431  0.70869048  0.43702394    -0.82800
C311        C  0.79161866  0.69449235  0.40924961     0.97700
O312        O  0.79082200  0.67400304  0.41927400    -0.82900
O313        O  0.83388823  0.66446507  0.44304023    -0.85500
C314        C  0.85177083  0.66328757  0.46375611     1.02200
O315        O  0.85187104  0.66719084  0.50367831    -0.78300
O316        O  0.84136188  0.71140326  0.50751635    -0.78500
C317        C  0.83026661  0.72882822  0.50151724     1.02100
O318        O  0.77859094  0.70083803  0.55604879    -0.85800
O319        O  0.76218613  0.68364649  0.48064259    -0.82900
C320        C  0.75962328  0.66285679  0.48644881     0.97700
O321        O  0.77617311  0.65097027  0.49537314    -0.82900
O322        O  0.81896545  0.63789256  0.51449136    -0.85500
C323        C  0.82115499  0.64018252  0.55468518     1.02200
O324        O  0.82008997  0.65923694  0.57121188    -0.78300
O325        O  0.81248021  0.70421172  0.58115063    -0.78500
C326        C  0.79150316  0.70537329  0.58646754     1.02100
Cr327      Cr  0.78799639  0.70399001  0.49651264     1.93700
Cr328      Cr  0.80517587  0.65848244  0.47036319     1.93200
Cr329      Cr  0.82985739  0.68540861  0.53852472     1.39100
O330        O  0.80759174  0.68251980  0.50210539    -1.23500
O331        O  0.51069993  0.55598484  0.25653242    -0.85800
O332        O  0.53170237  0.54262425  0.18504844    -0.82800
C333        C  0.54626523  0.53773704  0.15802624     0.97700
O334        O  0.56657879  0.53663682  0.16898919    -0.82900
O335        O  0.57652910  0.57968285  0.19136833    -0.85500
C336        C  0.57688121  0.59785026  0.21124805     1.02200
O337        O  0.57246484  0.59832176  0.25093509    -0.78300
O338        O  0.52843726  0.58765898  0.25380732    -0.78500
C339        C  0.51103073  0.57653082  0.24738338     1.02100
O340        O  0.53816730  0.52535011  0.30490184    -0.85800
O341        O  0.55579607  0.50846427  0.23014818    -0.82900
C342        C  0.57647864  0.50569167  0.23667239     0.97700
O343        O  0.58852686  0.52212858  0.24612058    -0.82900
O344        O  0.60196412  0.56519280  0.26419395    -0.85500
C345        C  0.59934329  0.56817367  0.30406506     1.02200
O346        O  0.58013659  0.56751222  0.32010897    -0.78300
O347        O  0.53516194  0.55946477  0.32898726    -0.78500
C348        C  0.53402135  0.53853607  0.33506919     1.02100
Cr349      Cr  0.53564607  0.53441493  0.24492291     1.93700
Cr350      Cr  0.58170797  0.55113389  0.22003688     1.93200
Cr351      Cr  0.55414888  0.57658568  0.28615393     1.39100
O352        O  0.55731028  0.55395883  0.25075242    -1.23500
C353        C  0.73804605  0.65177237  0.47739689    -0.03800
C354        C  0.72103588  0.66307462  0.45548715    -0.09600
C355        C  0.70266885  0.65137779  0.43932173    -0.17200
C356        C  0.70102336  0.62830132  0.44502715     0.24900
C357        C  0.71728535  0.61715188  0.46868533    -0.18900
C358        C  0.73562376  0.62877296  0.48481854    -0.07800
C359        C  0.68354179  0.61582505  0.42431488    -0.14200
C360        C  0.66951664  0.60536154  0.40525885    -0.14000
C361        C  0.65275519  0.59364956  0.38102546     0.24800
C362        C  0.65644767  0.58851018  0.33798299    -0.19400
C363        C  0.63943869  0.57905327  0.31332728    -0.07900
C364        C  0.61845208  0.57467527  0.33141083    -0.03900
C365        C  0.61524471  0.57898514  0.37519515    -0.09200
C366        C  0.63226640  0.58842753  0.39975154    -0.16900
H367        H  0.72248310  0.68070320  0.44888132     0.11300
H368        H  0.69018226  0.66020185  0.42103526     0.10500
H369        H  0.71621513  0.59932137  0.47336691     0.10500
H370        H  0.74841779  0.61953385  0.50146562     0.11000
H371        H  0.67225673  0.59243306  0.32312976     0.11100
H372        H  0.64244823  0.57600748  0.27975175     0.11000
H373        H  0.59930736  0.57582817  0.39017002     0.11200
H374        H  0.62921027  0.59226377  0.43303004     0.10000
C375        C  0.58382436  0.61819382  0.18792200    -0.03800
C376        C  0.58682602  0.61737709  0.14333649    -0.09600
C377        C  0.59534096  0.63566973  0.12120578    -0.17200
C378        C  0.60101181  0.65510751  0.14313198     0.24900
C379        C  0.59751580  0.65638713  0.18732873    -0.18900
C380        C  0.58891781  0.63804008  0.20964143    -0.07800
C381        C  0.61117466  0.67325763  0.12014194    -0.14200
C382        C  0.62009866  0.68763407  0.09931539    -0.14000
C383        C  0.63070721  0.70458084  0.07381865     0.24800
C384        C  0.61815595  0.72226178  0.05778351    -0.19400
C385        C  0.62847321  0.73920393  0.03446262    -0.07900
C386        C  0.65156112  0.73872941  0.02676963    -0.03900
C387        C  0.66397516  0.72057874  0.04199442    -0.09200
C388        C  0.65358756  0.70361767  0.06541494    -0.16900
H389        H  0.58300560  0.60240713  0.12554123     0.11300
H390        H  0.59791275  0.63448407  0.08703512     0.10500
H391        H  0.60183509  0.67138250  0.20464015     0.10500
H392        H  0.58685325  0.63916935  0.24391786     0.11000
H393        H  0.60044349  0.72316822  0.06395448     0.11100
H394        H  0.61843116  0.75299408  0.02343289     0.11000
H395        H  0.68179116  0.71986563  0.03707217     0.11200
H396        H  0.66346818  0.68997509  0.07763398     0.10000
C397        C  0.71035999  0.77452745  0.88039447    -0.03800
C398        C  0.73325372  0.77739382  0.87241607    -0.09600
C399        C  0.74304444  0.76863264  0.83569814    -0.17200
C400        C  0.73021041  0.75679273  0.80620311     0.24900
C401        C  0.70727396  0.75423184  0.81322295    -0.18900
C402        C  0.69736433  0.76311908  0.85005918    -0.07800
C403        C  0.74088190  0.74709911  0.76932369    -0.14200
C404        C  0.75047857  0.73924950  0.73895627    -0.14000
C405        C  0.76126979  0.73000422  0.70178214     0.24800
C406        C  0.74829438  0.72055251  0.66949938    -0.19400
C407        C  0.75830412  0.71218859  0.63267352    -0.07900
C408        C  0.78157429  0.71308460  0.62730284    -0.03900
C409        C  0.79462521  0.72229280  0.66019379    -0.09200
C410        C  0.78450076  0.73073788  0.69720626    -0.16900
H411        H  0.74374526  0.78616975  0.89496507     0.11300
H412        H  0.76074914  0.77083476  0.83063332     0.10500
H413        H  0.69712830  0.74511606  0.79057878     0.10500
H414        H  0.67974615  0.76052851  0.85539046     0.11000
H415        H  0.73034721  0.71984838  0.67256960     0.11100
H416        H  0.74769755  0.70520346  0.60811544     0.11000
H417        H  0.81253523  0.72333445  0.65697857     0.11200
H418        H  0.79475086  0.73803997  0.72199360     0.10000
C419        C  0.70776918  0.78256955  0.14230446    -0.03800
C420        C  0.70082773  0.76100045  0.15388548    -0.09600
C421        C  0.71038307  0.75016196  0.18872334    -0.17200
C422        C  0.72698552  0.76069637  0.21257030     0.24900
C423        C  0.73294590  0.78274294  0.20312826    -0.18900
C424        C  0.72329847  0.79370696  0.16819318    -0.07800
C425        C  0.73904898  0.74814385  0.24416812    -0.14200
C426        C  0.74959642  0.73704836  0.26907664    -0.14000
C427        C  0.76249109  0.72465599  0.29968788     0.24800
C428        C  0.77990785  0.73524917  0.32118527    -0.19400
C429        C  0.79080681  0.72444620  0.35457186    -0.07900
C430        C  0.78440471  0.70285576  0.36710163    -0.03900
C431        C  0.76793329  0.69168036  0.34349301    -0.09200
C432        C  0.75695528  0.70260161  0.30997015    -0.16900
H433        H  0.68882838  0.75203311  0.13457674     0.11300
H434        H  0.70555760  0.73317370  0.19580276     0.10500
H435        H  0.74577248  0.79107088  0.22149077     0.10500
H436        H  0.72908131  0.81021136  0.15974960     0.11000
H437        H  0.78443215  0.75223527  0.31339011     0.11100
H438        H  0.80343722  0.73347912  0.37221660     0.11000
H439        H  0.76248042  0.67519338  0.35282447     0.11200
H440        H  0.74352682  0.69421367  0.29337612     0.10000
C441        C  0.58901837  0.98410599  0.77982898    -0.03800
C442        C  0.61222155  0.98226523  0.77466792    -0.09600
C443        C  0.62368420  0.96404581  0.79141324    -0.17200
C444        C  0.61215657  0.94736204  0.81337887     0.24900
C445        C  0.58892659  0.94834935  0.81646464    -0.18900
C446        C  0.57739232  0.96658396  0.79968262    -0.07800
C447        C  0.62434621  0.93026052  0.83548718    -0.14200
C448        C  0.63467916  0.91667974  0.85573804    -0.14000
C449        C  0.64645479  0.90038857  0.88075106     0.24800
C450        C  0.65470372  0.88121745  0.86118460    -0.19400
C451        C  0.66435242  0.86443301  0.88584013    -0.07900
C452        C  0.66586263  0.86657386  0.93052801    -0.03900
C453        C  0.65849197  0.88637038  0.94973294    -0.09200
C454        C  0.64878376  0.90314588  0.92495669    -0.16900
H455        H  0.62169348  0.99545777  0.75960043     0.11300
H456        H  0.64164784  0.96344723  0.78875979     0.10500
H457        H  0.57982463  0.93550532  0.83339199     0.10500
H458        H  0.55957618  0.96755714  0.80443411     0.11000
H459        H  0.65307346  0.87893376  0.82700715     0.11100
H460        H  0.66988235  0.84941523  0.87004703     0.11000
H461        H  0.65927774  0.88846522  0.98404396     0.11200
H462        H  0.64248640  0.91795475  0.94043824     0.10000
C463        C  0.49115906  0.08548004  0.77814527    -0.03800
C464        C  0.49151666  0.10834379  0.78793216    -0.09600
C465        C  0.47434385  0.11800293  0.81144215    -0.17200
C466        C  0.45645807  0.10506033  0.82560814     0.24900
C467        C  0.45552538  0.08241347  0.81496370    -0.18900
C468        C  0.47277719  0.07265595  0.79135405    -0.07800
C469        C  0.43941694  0.11516840  0.85159794    -0.14200
C470        C  0.42551921  0.12459136  0.87274895    -0.14000
C471        C  0.40833339  0.13625859  0.89581134     0.24800
C472        C  0.40881088  0.13776077  0.94051404    -0.19400
C473        C  0.39127250  0.14801443  0.96253100    -0.07900
C474        C  0.37301510  0.15676618  0.94000203    -0.03900
C475        C  0.37316676  0.15587019  0.89505937    -0.09200
C476        C  0.39066062  0.14572389  0.87323093    -0.16900
H477        H  0.50542519  0.11872153  0.77847577     0.11300
H478        H  0.47524774  0.13553352  0.81928584     0.10500
H479        H  0.44171420  0.07221659  0.82562502     0.10500
H480        H  0.47208691  0.05499794  0.78468431     0.11000
H481        H  0.42245944  0.13057411  0.95837617     0.11100
H482        H  0.39157924  0.14831838  0.99710055     0.11000
H483        H  0.35942490  0.16250812  0.87669170     0.11200
H484        H  0.39013698  0.14482097  0.83868584     0.10000
C485        C  0.52697800  0.52902779  0.37681288    -0.03800
C486        C  0.51771322  0.54232815  0.40916932    -0.09600
C487        C  0.51002803  0.53261576  0.44726663    -0.17200
C488        C  0.51162263  0.50954718  0.45356601     0.24900
C489        C  0.52121680  0.49634464  0.42185287    -0.18900
C490        C  0.52879639  0.50594872  0.38389101    -0.07800
C491        C  0.50302997  0.49915989  0.49189112    -0.14200
C492        C  0.49561832  0.48992551  0.52319273    -0.14000
C493        C  0.48632233  0.47946751  0.56084206     0.24800
C494        C  0.48901158  0.45660864  0.56840237    -0.19400
C495        C  0.48014781  0.44677570  0.60542350    -0.07900
C496        C  0.46860559  0.45974804  0.63547310    -0.03900
C497        C  0.46582093  0.48262011  0.62723461    -0.09200
C498        C  0.47454685  0.49233915  0.59027724    -0.16900
H499        H  0.51602297  0.56010615  0.40470991     0.11300
H500        H  0.50262710  0.54305203  0.47156507     0.10500
H501        H  0.52261750  0.47852245  0.42624207     0.10500
H502        H  0.53593530  0.49518579  0.35984244     0.11000
H503        H  0.49809966  0.44642876  0.54588272     0.11100
H504        H  0.48273005  0.42919064  0.61097632     0.11000
H505        H  0.45698864  0.49311202  0.64959087     0.11200
H506        H  0.47225472  0.50998906  0.58485275     0.10000
C507        C  0.53853807  0.53069423  0.11557314    -0.03800
C508        C  0.54872359  0.51274114  0.09471231    -0.09600
C509        C  0.53763296  0.50183171  0.06140225    -0.17200
C510        C  0.51647735  0.50898899  0.04859342     0.24900
C511        C  0.50710431  0.52791678  0.06703706    -0.18900
C512        C  0.51804860  0.53871143  0.10035801    -0.07800
C513        C  0.50345469  0.49604885  0.01923250    -0.14200
C514        C  0.49154073  0.48557085  0.99574120    -0.14000
C515        C  0.47764743  0.47391502  0.96587511     0.24800
C516        C  0.45756275  0.48333787  0.95218433    -0.19400
C517        C  0.44598484  0.47400655  0.91778540    -0.07900
C518        C  0.45466534  0.45538996  0.89665475    -0.03900
C519        C  0.47387723  0.44503879  0.91276426    -0.09200
C520        C  0.48528978  0.45424879  0.94728344    -0.16900
H521        H  0.56431528  0.50606363  0.10634229     0.11300
H522        H  0.54501691  0.48718108  0.04719842     0.10500
H523        H  0.49080026  0.53363522  0.05721209     0.10500
H524        H  0.50984397  0.55249126  0.11605822     0.11000
H525        H  0.45154497  0.49858913  0.96644511     0.11100
H526        H  0.43141917  0.48242876  0.90545060     0.11000
H527        H  0.48087327  0.43068760  0.89678997     0.11200
H528        H  0.50075417  0.44678856  0.95776287     0.10000
C529        C  0.40932737  0.37061502  0.82320517    -0.03800
C530        C  0.40439914  0.37235981  0.86708250    -0.09600
C531        C  0.39516250  0.35449189  0.88934295    -0.17200
C532        C  0.39072368  0.33448693  0.86836091     0.24900
C533        C  0.39610549  0.33226039  0.82497716    -0.18900
C534        C  0.40537429  0.35024040  0.80245561    -0.07800
C535        C  0.38021394  0.31661488  0.89160835    -0.14200
C536        C  0.37134693  0.30234021  0.91279790    -0.14000
C537        C  0.36128919  0.28508394  0.93837945     0.24800
C538        C  0.37398460  0.26674970  0.95086089    -0.19400
C539        C  0.36415087  0.24930255  0.97355415    -0.07900
C540        C  0.34138278  0.24987995  0.98412529    -0.03900
C541        C  0.32887270  0.26872346  0.97270149    -0.09200
C542        C  0.33879371  0.28622530  0.94996065    -0.16900
H543        H  0.40723473  0.38775095  0.88420876     0.11300
H544        H  0.39115301  0.35641769  0.92287091     0.10500
H545        H  0.39279903  0.31678671  0.80842441     0.10500
H546        H  0.40892973  0.34838205  0.76875722     0.11000
H547        H  0.39140730  0.26569998  0.94223216     0.11100
H548        H  0.37426640  0.23502556  0.98163959     0.11000
H549        H  0.31129869  0.26961432  0.98008337     0.11200
H550        H  0.32881035  0.30039194  0.94059441     0.10000
C551        C  0.62178338  0.32946936  0.94000885    -0.03800
C552        C  0.62256244  0.33333322  0.89565912    -0.09600
C553        C  0.60461005  0.34302772  0.87451960    -0.17200
C554        C  0.58553440  0.34898520  0.89719217     0.24900
C555        C  0.58423879  0.34462303  0.94111696    -0.18900
C556        C  0.60227323  0.33487614  0.96246594    -0.07800
C557        C  0.56771744  0.36009271  0.87510583    -0.14200
C558        C  0.55360490  0.36948910  0.85453448    -0.14000
C559        C  0.53688234  0.38029802  0.82899438     0.24800
C560        C  0.53669833  0.40350402  0.82484747    -0.19400
C561        C  0.51981665  0.41396393  0.80149746    -0.07900
C562        C  0.50287111  0.40129270  0.78222056    -0.03900
C563        C  0.50360546  0.37795034  0.78555072    -0.09200
C564        C  0.52051498  0.36755368  0.80869514    -0.16900
H565        H  0.63730749  0.32938665  0.87733520     0.11300
H566        H  0.60579010  0.34627032  0.84054643     0.10500
H567        H  0.56950253  0.34915087  0.95897433     0.10500
H568        H  0.60122306  0.33223381  0.99661514     0.11000
H569        H  0.54933342  0.41353057  0.84036314     0.11100
H570        H  0.51954588  0.43195613  0.79992974     0.11000
H571        H  0.49077440  0.36772552  0.77116486     0.11200
H572        H  0.52055652  0.34958735  0.81148135     0.10000
C573        C  0.66434794  0.36493629  0.08118461    -0.03800
C574        C  0.65927450  0.38577416  0.06321312    -0.09600
C575        C  0.64978089  0.40256807  0.08826596    -0.17200
C576        C  0.64525158  0.39881719  0.13159307     0.24900
C577        C  0.65105406  0.37845064  0.15010221    -0.18900
C578        C  0.66055598  0.36166558  0.12517732    -0.07800
C579        C  0.63364952  0.41541570  0.15637666    -0.14200
C580        C  0.62324277  0.42940897  0.17553557    -0.14000
C581        C  0.61061750  0.44688049  0.19585230     0.24800
C582        C  0.62124068  0.46208886  0.22291099    -0.19400
C583        C  0.60965879  0.48051263  0.23864082    -0.07900
C584        C  0.58721946  0.48400236  0.22758883    -0.03900
C585        C  0.57634895  0.46802874  0.20214931    -0.09200
C586        C  0.58800699  0.44964931  0.18628583    -0.16900
H587        H  0.66189364  0.38883677  0.02950754     0.11300
H588        H  0.64540287  0.41827255  0.07354004     0.10500
H589        H  0.64769047  0.37531218  0.18355964     0.10500
H590        H  0.66423285  0.34584574  0.14012566     0.11000
H591        H  0.63870722  0.46016649  0.23059484     0.11100
H592        H  0.61853804  0.49252972  0.25801272     0.11000
H593        H  0.55919869  0.47036331  0.19255601     0.11200
H594        H  0.57958803  0.43804597  0.16527793     0.10000
C595        C  0.65598927  0.23636020  0.98258194    -0.03800
C596        C  0.63291520  0.23569072  0.97481826    -0.09600
C597        C  0.62335215  0.21798010  0.95246714    -0.17200
C598        C  0.63661927  0.20059988  0.93744792     0.24900
C599        C  0.65951525  0.20070022  0.94612747    -0.18900
C600        C  0.66916153  0.21846360  0.96860315    -0.07800
C601        C  0.62661892  0.18311914  0.91224248    -0.14200
C602        C  0.61731447  0.16900539  0.89128602    -0.14000
C603        C  0.60570880  0.15190343  0.86768943     0.24800
C604        C  0.60401990  0.15293650  0.82304740    -0.19400
C605        C  0.59353377  0.13572135  0.80036781    -0.07900
C606        C  0.58472729  0.11721662  0.82214470    -0.03900
C607        C  0.58591970  0.11672781  0.86706862    -0.09200
C608        C  0.59630227  0.13391652  0.88957887    -0.16900
H609        H  0.62227436  0.24919398  0.98497197     0.11300
H610        H  0.60562841  0.21809189  0.94610587     0.10500
H611        H  0.66997376  0.18731291  0.93474860     0.10500
H612        H  0.68698004  0.21855451  0.97374448     0.11000
H613        H  0.61117747  0.16681930  0.80572274     0.11100
H614        H  0.59305452  0.13649021  0.76583041     0.11000
H615        H  0.57928577  0.10274870  0.88485773     0.11200
H616        H  0.59736096  0.13295411  0.92407500     0.10000
C617        C  0.40646373  0.50450752  0.78097457    -0.03800
C618        C  0.38359198  0.50717353  0.77264469    -0.09600
C619        C  0.37219660  0.52585412  0.78761889    -0.17200
C620        C  0.38346303  0.54219720  0.81099938     0.24900
C621        C  0.40647775  0.54036259  0.81724689    -0.18900
C622        C  0.41794031  0.52167230  0.80223896    -0.07800
C623        C  0.37111541  0.55973431  0.83159703    -0.14200
C624        C  0.36077275  0.57357369  0.85122160    -0.14000
C625        C  0.34909479  0.58988498  0.87647028     0.24800
C626        C  0.34489499  0.58591816  0.91984557    -0.19400
C627        C  0.33520990  0.60244540  0.94524874    -0.07900
C628        C  0.32961579  0.62320827  0.92756283    -0.03900
C629        C  0.33309870  0.62668003  0.88353225    -0.09200
C630        C  0.34279538  0.61016549  0.85826498    -0.16900
H631        H  0.37424568  0.49429985  0.75635394     0.11300
H632        H  0.35441098  0.52707444  0.78249561     0.10500
H633        H  0.41539948  0.55290698  0.83528964     0.10500
H634        H  0.43549774  0.52009769  0.80937999     0.11000
H635        H  0.34966098  0.57026221  0.93431303     0.11100
H636        H  0.33284810  0.59925253  0.97898023     0.11000
H637        H  0.32903809  0.64246383  0.86881440     0.11200
H638        H  0.34590563  0.61344915  0.82476738     0.10000
C639        C  0.49159237  0.58759310  0.22743791    -0.03800
C640        C  0.49223839  0.61065644  0.21949837    -0.09600
C641        C  0.47539335  0.62096528  0.19606181    -0.17200
C642        C  0.45762120  0.60845111  0.18009561     0.24900
C643        C  0.45649826  0.58557398  0.18857117    -0.18900
C644        C  0.47338512  0.57517999  0.21212431    -0.07800
C645        C  0.44077448  0.61920087  0.15470040    -0.14200
C646        C  0.42675056  0.62876410  0.13415397    -0.14000
C647        C  0.40918247  0.64011338  0.11173265     0.24800
C648        C  0.40991153  0.64278321  0.06725854    -0.19400
C649        C  0.39189959  0.65238335  0.04559220    -0.07900
C650        C  0.37296323  0.65928947  0.06829357    -0.03900
C651        C  0.37286830  0.65735709  0.11312385    -0.09200
C652        C  0.39080823  0.64782696  0.13459121    -0.16900
H653        H  0.50606545  0.62070923  0.23054483     0.11300
H654        H  0.47642622  0.63867000  0.18981875     0.10500
H655        H  0.44277972  0.57571803  0.17639700     0.10500
H656        H  0.47253173  0.55738254  0.21723696     0.11000
H657        H  0.42411906  0.63693074  0.04925445     0.11100
H658        H  0.39241467  0.65357417  0.01110114     0.11000
H659        H  0.35859709  0.66260030  0.13162593     0.11200
H660        H  0.39008947  0.64596344  0.16898706     0.10000
C661        C  0.82730330  0.62100727  0.58211145    -0.03800
C662        C  0.83014522  0.62395758  0.62643032    -0.09600
C663        C  0.83937216  0.60709250  0.65156043    -0.17200
C664        C  0.84583285  0.58699738  0.63289862     0.24900
C665        C  0.84212287  0.58350077  0.58922332    -0.18900
C666        C  0.83287866  0.60036562  0.56397510    -0.07800
C667        C  0.85732853  0.57048287  0.65801206    -0.14200
C668        C  0.86762891  0.55664162  0.67776374    -0.14000
C669        C  0.88001672  0.53924975  0.69877409     0.24800
C670        C  0.86869919  0.52184733  0.71905405    -0.19400
C671        C  0.88042060  0.50346407  0.73450199    -0.07900
C672        C  0.90368716  0.50214668  0.72969250    -0.03900
C673        C  0.91507923  0.52033069  0.71160104    -0.09200
C674        C  0.90328890  0.53873619  0.69614127    -0.16900
H675        H  0.82601489  0.63961943  0.64148726     0.11300
H676        H  0.84208175  0.60999256  0.68531135     0.10500
H677        H  0.84700827  0.56798709  0.57441150     0.10500
H678        H  0.83097627  0.59757002  0.53001268     0.11000
H679        H  0.85071434  0.52205228  0.72138840     0.11100
H680        H  0.87111479  0.48979119  0.74831979     0.11000
H681        H  0.93294566  0.51982348  0.70728377     0.11200
H682        H  0.91225110  0.55213054  0.68056495     0.10000
C683        C  0.75520439  0.33712649  0.97717023    -0.03800
C684        C  0.75646225  0.36043844  0.98101458    -0.09600
C685        C  0.77465152  0.37212155  0.96456447    -0.17200
C686        C  0.79187770  0.36069879  0.94427004     0.24900
C687        C  0.79134439  0.33743737  0.94213964    -0.18900
C688        C  0.77312799  0.32568592  0.95855787    -0.07800
C689        C  0.80929931  0.37293399  0.92323121    -0.14200
C690        C  0.82343583  0.38297689  0.90385905    -0.14000
C691        C  0.84054744  0.39400111  0.87967458     0.24800
C692        C  0.83686119  0.39978282  0.83691861    -0.19400
C693        C  0.85420080  0.40861203  0.81232744    -0.07900
C694        C  0.87543224  0.41171657  0.83031296    -0.03900
C695        C  0.87866304  0.40670130  0.87381485    -0.09200
C696        C  0.86135020  0.39784625  0.89823607    -0.16900
H697        H  0.74291444  0.36977606  0.99498027     0.11300
H698        H  0.77489573  0.39011965  0.96635563     0.10500
H699        H  0.80461489  0.32844176  0.92643330     0.10500
H700        H  0.77258720  0.30778922  0.95478853     0.11000
H701        H  0.82077896  0.39687880  0.82226915     0.11100
H702        H  0.85119075  0.41228685  0.77896521     0.11000
H703        H  0.89479905  0.40885981  0.88867390     0.11200
H704        H  0.86437511  0.39342689  0.93128306     0.10000
C705        C  0.87195570  0.65567179  0.44096606    -0.03800
C706        C  0.87220747  0.65582729  0.39600255    -0.09600
C707        C  0.88965861  0.64607505  0.37348885    -0.17200
C708        C  0.90717596  0.63595856  0.39540697     0.24900
C709        C  0.90751665  0.63630550  0.44020728    -0.18900
C710        C  0.89001405  0.64618254  0.46293614    -0.07800
C711        C  0.92437220  0.62486866  0.37148140    -0.14200
C712        C  0.93828732  0.61590534  0.34972163    -0.14000
C713        C  0.95534347  0.60599079  0.32361937     0.24800
C714        C  0.97337458  0.61892681  0.31007643    -0.19400
C715        C  0.99080602  0.60920686  0.28734790    -0.07900
C716        C  0.99050612  0.58631860  0.27780549    -0.03900
C717        C  0.97188841  0.57358329  0.29004372    -0.09200
C718        C  0.95441410  0.58338319  0.31284477    -0.16900
H719        H  0.85859453  0.66305306  0.37810357     0.11300
H720        H  0.88924432  0.64602965  0.33889271     0.10500
H721        H  0.92104345  0.62855602  0.45753245     0.10500
H722        H  0.89018431  0.64564496  0.49750080     0.11000
H723        H  0.97424230  0.63644622  0.31802362     0.11100
H724        H  0.00487791  0.61950922  0.27849645     0.11000
H725        H  0.97119191  0.55592638  0.28336404     0.11200
H726        H  0.94047461  0.57321634  0.32299141     0.10000
C727        C  0.02677847  0.52861412  0.13285859    -0.03800
C728        C  0.02617043  0.50537854  0.12723203    -0.09600
C729        C  0.01737811  0.49608253  0.09003680    -0.17200
C730        C  0.00905268  0.50977769  0.05773415     0.24900
C731        C  0.01003933  0.53295900  0.06241986    -0.18900
C732        C  0.01887961  0.54235133  0.09977616    -0.07800
C733        C  0.99904891  0.49978089  0.02052220    -0.14200
C734        C  0.99065368  0.49049883  0.99034531    -0.14000
C735        C  0.98089603  0.47949537  0.95393935     0.24800
C736        C  0.96820519  0.49173501  0.92487705    -0.19400
C737        C  0.96002589  0.48162538  0.88791843    -0.07900
C738        C  0.96438957  0.45904862  0.87938364    -0.03900
C739        C  0.97637210  0.44658156  0.90960345    -0.09200
C740        C  0.98465341  0.45679956  0.94661780    -0.16900
H741        H  0.03215775  0.49428492  0.15193361     0.11300
H742        H  0.01677244  0.47814833  0.08676188     0.10500
H743        H  0.00368442  0.54374298  0.03753597     0.10500
H744        H  0.01911390  0.56027547  0.10311986     0.11000
H745        H  0.96504886  0.50924448  0.93028328     0.11100
H746        H  0.95067249  0.49165586  0.86550093     0.11000
H747        H  0.98000737  0.42920448  0.90391561     0.11200
H748        H  0.99439745  0.44713075  0.96901847     0.10000
C749        C  0.03811842  0.53051652  0.39367668    -0.03800
C750        C  0.04792218  0.51218680  0.41408556    -0.09600
C751        C  0.03692384  0.50168004  0.44797436    -0.17200
C752        C  0.01625755  0.50962469  0.46186709     0.24900
C753        C  0.00722647  0.52878399  0.44355797    -0.18900
C754        C  0.01804878  0.53914103  0.40954547    -0.07800
C755        C  0.00341567  0.49731703  0.49250029    -0.14200
C756        C  0.99198190  0.48706228  0.51720152    -0.14000
C757        C  0.97907446  0.47509641  0.54821765     0.24800
C758        C  0.95748804  0.48200999  0.55866055    -0.19400
C759        C  0.94626364  0.47222178  0.59308720    -0.07900
C760        C  0.95674438  0.45564978  0.61737496    -0.03900
C761        C  0.97778428  0.44783384  0.60479287    -0.09200
C762        C  0.98887172  0.45751539  0.57042773    -0.16900
H763        H  0.06314243  0.50500820  0.40181336     0.11300
H764        H  0.04400974  0.48681044  0.46197047     0.10500
H765        H  0.99128754  0.53508471  0.45417637     0.10500
H766        H  0.01013545  0.55317676  0.39406957     0.11000
H767        H  0.94979654  0.49564665  0.54155868     0.11100
H768        H  0.93023010  0.47872323  0.60262676     0.11000
H769        H  0.98621611  0.43509473  0.62314986     0.11200
H770        H  0.00552428  0.45201517  0.56252783     0.10000
C771        C  0.23913572  0.65004354  0.03330011    -0.03800
C772        C  0.23816898  0.62665812  0.03081678    -0.09600
C773        C  0.21984717  0.61503257  0.04694599    -0.17200
C774        C  0.20216967  0.62657255  0.06553014     0.24900
C775        C  0.20244222  0.64986769  0.06622682    -0.18900
C776        C  0.22079763  0.66155959  0.05016319    -0.07800
C777        C  0.18454413  0.61448627  0.08641548    -0.14200
C778        C  0.17031017  0.60456836  0.10584922    -0.14000
C779        C  0.15330285  0.59351423  0.13039714     0.24800
C780        C  0.13310914  0.58769663  0.11116217    -0.19400
C781        C  0.11593366  0.57853621  0.13563826    -0.07900
C782        C  0.11871055  0.57511049  0.17981398    -0.03900
C783        C  0.13935774  0.58028449  0.19859341    -0.09200
C784        C  0.15652075  0.58946517  0.17401275    -0.16900
H785        H  0.25202144  0.61724569  0.01820354     0.11300
H786        H  0.21983203  0.59701247  0.04625796     0.10500
H787        H  0.18883244  0.65897009  0.08057350     0.10500
H788        H  0.22107171  0.67951672  0.05278946     0.11000
H789        H  0.13043288  0.59075357  0.07744732     0.11100
H790        H  0.10023976  0.57479878  0.12018792     0.11000
H791        H  0.14199234  0.57798653  0.23252125     0.11200
H792        H  0.17209526  0.59392496  0.18924518     0.10000
C793        C  0.25729890  0.33461352  0.53313171    -0.03800
C794        C  0.27414528  0.32278063  0.55448160    -0.09600
C795        C  0.29284812  0.33394510  0.57054880    -0.17200
C796        C  0.29497432  0.35700025  0.56526888     0.24900
C797        C  0.27891777  0.36865489  0.54201687    -0.18900
C798        C  0.26024111  0.35756928  0.52599948    -0.07800
C799        C  0.31258767  0.36902564  0.58638200    -0.14200
C800        C  0.32645827  0.37949006  0.60576058    -0.14000
C801        C  0.34283272  0.39166176  0.62999815     0.24800
C802        C  0.33857514  0.39758357  0.67247293    -0.19400
C803        C  0.35512180  0.40791790  0.69698284    -0.07900
C804        C  0.37616377  0.41242100  0.67925165    -0.03900
C805        C  0.37992741  0.40721577  0.63600589    -0.09200
C806        C  0.36339599  0.39687322  0.61164370    -0.16900
H807        H  0.27230868  0.30515919  0.56080381     0.11300
H808        H  0.30518264  0.32474803  0.58853541     0.10500
H809        H  0.28038030  0.38648453  0.53770331     0.10500
H810        H  0.24759186  0.36719572  0.50976256     0.11000
H811        H  0.32267737  0.39367466  0.68698869     0.11100
H812        H  0.35172132  0.41159977  0.73018238     0.11000
H813        H  0.39594524  0.41037545  0.62135360     0.11200
H814        H  0.36686842  0.39242193  0.57880201     0.10000
C815        C  0.21303454  0.27435038  0.38341783    -0.03800
C816        C  0.19974048  0.26591218  0.35012950    -0.09600
C817        C  0.20961222  0.25716861  0.31312349    -0.17200
C818        C  0.23286017  0.25682537  0.30885322     0.24900
C819        C  0.24611988  0.26565190  0.34140806    -0.18900
C820        C  0.23634516  0.27432260  0.37827846    -0.07800
C821        C  0.24329570  0.24715988  0.27162168    -0.14200
C822        C  0.25246221  0.23910907  0.24091605    -0.14000
C823        C  0.26278294  0.22966358  0.20336483     0.24800
C824        C  0.28602628  0.22867301  0.19942188    -0.19400
C825        C  0.29578474  0.22025253  0.16203185    -0.07900
C826        C  0.28237877  0.21274158  0.12808532    -0.03900
C827        C  0.25906603  0.21344632  0.13285586    -0.09200
C828        C  0.24940623  0.22182656  0.17006801    -0.16900
H829        H  0.18179182  0.26565128  0.35305633     0.11300
H830        H  0.19912823  0.25043512  0.28810466     0.10500
H831        H  0.26408717  0.26559388  0.33854657     0.10500
H832        H  0.24714074  0.28075571  0.40308743     0.11000
H833        H  0.29659853  0.23466327  0.22499304     0.11100
H834        H  0.31374465  0.21998778  0.15939840     0.11000
H835        H  0.24817974  0.20780332  0.10749398     0.11200
H836        H  0.23143868  0.22244243  0.17262674     0.10000
C837        C  0.20985025  0.28530548  0.64385637    -0.03800
C838        C  0.22687552  0.29616932  0.66651891    -0.09600
C839        C  0.23757514  0.28532480  0.70037199    -0.17200
C840        C  0.23116816  0.26369855  0.71191301     0.24900
C841        C  0.21327879  0.25344810  0.69126740    -0.18900
C842        C  0.20267673  0.26416284  0.65747456    -0.07800
C843        C  0.24373591  0.25128096  0.74277531    -0.14200
C844        C  0.25412176  0.24006758  0.76760881    -0.14000
C845        C  0.26619158  0.22720968  0.79853717     0.24800
C846        C  0.25903933  0.20575674  0.80966105    -0.19400
C847        C  0.26913570  0.19449263  0.84366445    -0.07900
C848        C  0.28627683  0.20477970  0.86693937    -0.03900
C849        C  0.29419904  0.22573803  0.85383329    -0.09200
C850        C  0.28422239  0.23686002  0.81980440    -0.16900
H851        H  0.23293696  0.31228291  0.65619769     0.11300
H852        H  0.25143532  0.29338607  0.71624609     0.10500
H853        H  0.20815479  0.23676152  0.70003476     0.10500
H854        H  0.18963701  0.25539766  0.64043894     0.11000
H855        H  0.24504751  0.19817486  0.79334825     0.11100
H856        H  0.26250535  0.17854436  0.85365159     0.11000
H857        H  0.30734276  0.23403939  0.87142395     0.11200
H858        H  0.28991166  0.25341071  0.81137745     0.10000
C859        C  0.12298656  0.33394276  0.56831886    -0.03800
C860        C  0.12289212  0.33582177  0.61314812    -0.09600
C861        C  0.10522464  0.34606493  0.63428873    -0.17200
C862        C  0.08729502  0.35464890  0.61114734     0.24900
C863        C  0.08685234  0.35231635  0.56656981    -0.18900
C864        C  0.10457767  0.34197494  0.54524052    -0.07800
C865        C  0.06969328  0.36605975  0.63358458    -0.14200
C866        C  0.05552669  0.37515609  0.65464584    -0.14000
C867        C  0.03845511  0.38490803  0.68113280     0.24800
C868        C  0.03699470  0.40803372  0.68618768    -0.19400
C869        C  0.01982213  0.41729647  0.71069185    -0.07900
C870        C  0.00382873  0.40351994  0.73027768    -0.03900
C871        C  0.00579992  0.38030916  0.72583747    -0.09200
C872        C  0.02299535  0.37111199  0.70159559    -0.16900
H873        H  0.13675124  0.32978783  0.63195509     0.11300
H874        H  0.10574702  0.34762846  0.66874579     0.10500
H875        H  0.07302326  0.35882393  0.54826303     0.10500
H876        H  0.10421490  0.34091800  0.51072905     0.11000
H877        H  0.04886130  0.41891544  0.67055566     0.11100
H878        H  0.01856320  0.43522262  0.71293556     0.11000
H879        H  0.99371172  0.36923767  0.74029174     0.11200
H880        H  0.02396847  0.35321030  0.69813544     0.10000
C881        C  0.16760178  0.36709817  0.42911871    -0.03800
C882        C  0.16439828  0.36415640  0.38491324    -0.09600
C883        C  0.15429542  0.38073371  0.36036878    -0.17200
C884        C  0.14732824  0.40052492  0.37953119     0.24900
C885        C  0.15145625  0.40408732  0.42303681    -0.18900
C886        C  0.16156809  0.38750591  0.44770507    -0.07800
C887        C  0.13501101  0.41667821  0.35507993    -0.14200
C888        C  0.12429954  0.43032456  0.33568844    -0.14000
C889        C  0.11195025  0.44769022  0.31460208     0.24800
C890        C  0.08871700  0.44864573  0.31799491    -0.19400
C891        C  0.07710987  0.46703787  0.30192724    -0.07900
C892        C  0.08866307  0.48472354  0.28240890    -0.03900
C893        C  0.11186589  0.48297177  0.27716220    -0.09200
C894        C  0.12339012  0.46463436  0.29322976    -0.16900
H895        H  0.16884981  0.34866276  0.36955857     0.11300
H896        H  0.15128981  0.37781532  0.32671613     0.10500
H897        H  0.14620974  0.41939089  0.43819427     0.10500
H898        H  0.16371563  0.39027388  0.48162416     0.11000
H899        H  0.07967147  0.43561506  0.33450155     0.11100
H900        H  0.05929545  0.46793386  0.30675900     0.11000
H901        H  0.12130394  0.49628343  0.26240898     0.11200
H902        H  0.14134853  0.46409847  0.29039885     0.10000
C903        C  0.73889279  0.15109463  0.53464069    -0.03800
C904        C  0.73721333  0.12793392  0.52862086    -0.09600
C905        C  0.71890849  0.11613025  0.54426567    -0.17200
C906        C  0.70196417  0.12727341  0.56595945     0.24900
C907        C  0.70287403  0.15045861  0.57017261    -0.18900
C908        C  0.72121436  0.16233999  0.55451779    -0.07800
C909        C  0.68457680  0.11472742  0.58653650    -0.14200
C910        C  0.67065400  0.10431052  0.60581509    -0.14000
C911        C  0.65396185  0.09282628  0.63038925     0.24800
C912        C  0.63404976  0.08622727  0.61102746    -0.19400
C913        C  0.61692273  0.07711842  0.63565968    -0.07900
C914        C  0.61947349  0.07452756  0.68010257    -0.03900
C915        C  0.63993358  0.08026186  0.69898735    -0.09200
C916        C  0.65705241  0.08940443  0.67424214    -0.16900
H917        H  0.75053243  0.11875092  0.51351100     0.11300
H918        H  0.71838502  0.09820360  0.54081954     0.10500
H919        H  0.68983057  0.15924826  0.58697011     0.10500
H920        H  0.72207439  0.18011006  0.55992422     0.11000
H921        H  0.63149442  0.08875248  0.57711578     0.11100
H922        H  0.60139624  0.07283775  0.62009774     0.11000
H923        H  0.64238875  0.07855784  0.73309263     0.11200
H924        H  0.67243082  0.09444550  0.68954303     0.10000
C925        C  0.78105626  0.21318515  0.38363955    -0.03800
C926        C  0.79457280  0.22160420  0.35067554    -0.09600
C927        C  0.78496020  0.23025796  0.31341138    -0.17200
C928        C  0.76176697  0.23055614  0.30864000     0.24900
C929        C  0.74826100  0.22184948  0.34093718    -0.18900
C930        C  0.75779022  0.21323622  0.37810211    -0.07800
C931        C  0.75166945  0.24012606  0.27112230    -0.14200
C932        C  0.74281849  0.24820247  0.24017521    -0.14000
C933        C  0.73264717  0.25772284  0.20268228     0.24800
C934        C  0.70943893  0.25808080  0.19814062    -0.19400
C935        C  0.69974167  0.26654570  0.16078512    -0.07900
C936        C  0.71319030  0.27470489  0.12749959    -0.03900
C937        C  0.73647648  0.27471301  0.13291393    -0.09200
C938        C  0.74608685  0.26627523  0.17014486    -0.16900
H939        H  0.81250548  0.22187237  0.35399991     0.11300
H940        H  0.79559341  0.23694775  0.28857677     0.10500
H941        H  0.73031344  0.22195073  0.33762284     0.10500
H942        H  0.74686684  0.20688864  0.40278412     0.11000
H943        H  0.69885698  0.25154149  0.22320030     0.11100
H944        H  0.68180164  0.26629910  0.15761878     0.11000
H945        H  0.74736335  0.28091340  0.10803579     0.11200
H946        H  0.76404293  0.26615360  0.17329233     0.10000
C947        C  0.78723111  0.20404555  0.64517345    -0.03800
C948        C  0.79443683  0.22556268  0.65643445    -0.09600
C949        C  0.78499942  0.23661375  0.69103742    -0.17200
C950        C  0.76829811  0.22631330  0.71496738     0.24900
C951        C  0.76223800  0.20423398  0.70612446    -0.18900
C952        C  0.77175932  0.19305801  0.67139084    -0.07800
C953        C  0.75607726  0.23920966  0.74564891    -0.14200
C954        C  0.74531439  0.25055698  0.76965834    -0.14000
C955        C  0.73212701  0.26301402  0.79952821     0.24800
C956        C  0.71480862  0.25229249  0.82104265    -0.19400
C957        C  0.70386568  0.26301757  0.85435110    -0.07900
C958        C  0.71014896  0.28463971  0.86677102    -0.03900
C959        C  0.72639586  0.29600710  0.84293583    -0.09200
C960        C  0.73742308  0.28515923  0.80946417    -0.16900
H961        H  0.80640706  0.23439296  0.63681727     0.11300
H962        H  0.78989254  0.25362527  0.69768636     0.10500
H963        H  0.74933647  0.19609779  0.72461019     0.10500
H964        H  0.76579630  0.17659461  0.66315637     0.11000
H965        H  0.71047660  0.23523494  0.81347142     0.11100
H966        H  0.69137922  0.25387004  0.87216281     0.11000
H967        H  0.73171357  0.31254564  0.85217018     0.11200
H968        H  0.75076959  0.29363785  0.79279545     0.10000
C969        C  0.83887139  0.25023901  0.52910329    -0.03800
C970        C  0.86203113  0.25099336  0.53568910    -0.09600
C971        C  0.87166937  0.26814587  0.55942607    -0.17200
C972        C  0.85837215  0.28481159  0.57707154     0.24900
C973        C  0.83535623  0.28459820  0.56978651    -0.18900
C974        C  0.82564095  0.26741831  0.54587988    -0.07800
C975        C  0.86854008  0.30182036  0.60304814    -0.14200
C976        C  0.87809659  0.31577380  0.62388676    -0.14000
C977        C  0.88997687  0.33300793  0.64643327     0.24800
C978        C  0.89886777  0.35090981  0.62354651    -0.19400
C979        C  0.90921813  0.36844604  0.64502706    -0.07900
C980        C  0.91087026  0.36837593  0.68987965    -0.03900
C981        C  0.90273535  0.34987641  0.71262804    -0.09200
C982        C  0.89227846  0.33230740  0.69097647    -0.16900
H983        H  0.87268745  0.23798012  0.52344869     0.11300
H984        H  0.88949018  0.26816672  0.56470495     0.10500
H985        H  0.82488824  0.29744512  0.58324205     0.10500
H986        H  0.80774621  0.26715458  0.54184003     0.11000
H987        H  0.89733996  0.35157670  0.58908791     0.11100
H988        H  0.91537328  0.38239442  0.62653240     0.11000
H989        H  0.90363446  0.34940962  0.74715515     0.11200
H990        H  0.88554297  0.31846383  0.70902463     0.10000
C991        C  0.87447624  0.91033648  0.18072692    -0.03800
C992        C  0.85383897  0.90471154  0.19905824    -0.09600
C993        C  0.83717870  0.89464547  0.17432214    -0.17200
C994        C  0.84091653  0.89010650  0.13101225     0.24900
C995        C  0.86113664  0.89623195  0.11230079    -0.18900
C996        C  0.87776763  0.90628003  0.13687412    -0.07800
C997        C  0.82438985  0.87850199  0.10602960    -0.14200
C998        C  0.81062929  0.86839667  0.08562372    -0.14000
C999        C  0.79336403  0.85631793  0.06348410     0.24800
C1000       C  0.79118692  0.83329373  0.06908705    -0.19400
C1001       C  0.77265047  0.82204477  0.05260520    -0.07900
C1002       C  0.75596468  0.83376264  0.03060209    -0.03900
C1003       C  0.75905597  0.85663376  0.02273159    -0.09200
C1004       C  0.77762055  0.86781576  0.03910764    -0.16900
H1005       H  0.85083315  0.90741445  0.23274396     0.11300
H1006       H  0.82157979  0.88996448  0.18919108     0.10500
H1007       H  0.86424509  0.89281379  0.07886931     0.10500
H1008       H  0.89347364  0.91027068  0.12172489     0.11000
H1009       H  0.80329326  0.82420097  0.08782761     0.11100
H1010       H  0.77071806  0.80448096  0.05940442     0.11000
H1011       H  0.74655238  0.86613016  0.00580434     0.11200
H1012       H  0.77916150  0.88560868  0.03437314     0.10000
C1013       C  0.91016381  0.86927867  0.32395403    -0.03800
C1014       C  0.90654913  0.87055019  0.36834338    -0.09600
C1015       C  0.89799212  0.85240043  0.39081270    -0.17200
C1016       C  0.89292845  0.83263597  0.36945479     0.24900
C1017       C  0.89705894  0.83089971  0.32551343    -0.18900
C1018       C  0.90566843  0.84912115  0.30284045    -0.07800
C1019       C  0.88272494  0.81460740  0.39270948    -0.14200
C1020       C  0.87370660  0.80029480  0.41354096    -0.14000
C1021       C  0.86288333  0.78330706  0.43859437     0.24800
C1022       C  0.87537219  0.76586187  0.45573970    -0.19400
C1023       C  0.86481380  0.74867158  0.47799431    -0.07900
C1024       C  0.84154966  0.74867558  0.48350778    -0.03900
C1025       C  0.82919453  0.76666504  0.46741507    -0.09200
C1026       C  0.83981895  0.78385916  0.44504037    -0.16900
H1027       H  0.90986170  0.88577821  0.38569649     0.11300
H1028       H  0.89490910  0.85394614  0.42477252     0.10500
H1029       H  0.89321080  0.81564173  0.30864897     0.10500
H1030       H  0.90821007  0.84763964  0.26873415     0.11000
H1031       H  0.89322755  0.76528780  0.45111751     0.11100
H1032       H  0.87482742  0.73504973  0.48986125     0.11000
H1033       H  0.81126786  0.76704884  0.47075711     0.11200
H1034       H  0.82998583  0.79732278  0.43197189     0.10000
C1035       C  0.82839340  0.12184833  0.43082832    -0.03800
C1036       C  0.83168854  0.12456947  0.38657822    -0.09600
C1037       C  0.84084688  0.10743875  0.36209532    -0.17200
C1038       C  0.84678287  0.08730316  0.38134438     0.24900
C1039       C  0.84266494  0.08406599  0.42495162    -0.18900
C1040       C  0.83349951  0.10119588  0.44955037    -0.07800
C1041       C  0.85817750  0.07047512  0.35692174    -0.14200
C1042       C  0.86843352  0.05649624  0.33751647    -0.14000
C1043       C  0.88083353  0.03920894  0.31629595     0.24800
C1044       C  0.86962541  0.02296976  0.29256053    -0.19400
C1045       C  0.88125497  0.00486336  0.27577532    -0.07900
C1046       C  0.90431543  0.00267274  0.28259796    -0.03900
C1047       C  0.91564596  0.01966360  0.30464498    -0.09200
C1048       C  0.90394897  0.03777784  0.32146561    -0.16900
H1049       H  0.82794381  0.14023116  0.37108724     0.11300
H1050       H  0.84389453  0.11014682  0.32838893     0.10500
H1051       H  0.84714994  0.06853239  0.44021954     0.10500
H1052       H  0.83122957  0.09855815  0.48348102     0.11000
H1053       H  0.85175854  0.02387606  0.28830009     0.11100
H1054       H  0.87199452  0.99205498  0.25911929     0.11000
H1055       H  0.93332155  0.01837808  0.31087587     0.11200
H1056       H  0.91281894  0.05023735  0.33981528     0.10000
C1057       C  0.08373804  0.61870016  0.31937843    -0.03800
C1058       C  0.09199652  0.63699119  0.29618561    -0.09600
C1059       C  0.10190409  0.65493737  0.31753094    -0.17200
C1060       C  0.10349842  0.65480635  0.36217350     0.24900
C1061       C  0.09454089  0.63707521  0.38544101    -0.18900
C1062       C  0.08476301  0.61913968  0.36425700    -0.07800
C1063       C  0.11492612  0.67235320  0.38446792    -0.14200
C1064       C  0.12433501  0.68634840  0.40533187    -0.14000
C1065       C  0.13458284  0.70308458  0.43165987     0.24800
C1066       C  0.15762248  0.70316156  0.43861298    -0.19400
C1067       C  0.16745352  0.72001283  0.46315036    -0.07900
C1068       C  0.15428608  0.73695904  0.48086570    -0.03900
C1069       C  0.13108973  0.73630524  0.47462061    -0.09200
C1070       C  0.12134735  0.71950405  0.45022180    -0.16900
H1071       H  0.09157465  0.63703443  0.26161276     0.11300
H1072       H  0.10875931  0.66863030  0.29922371     0.10500
H1073       H  0.09558435  0.63685897  0.41998703     0.10500
H1074       H  0.07848663  0.60534204  0.38301723     0.11000
H1075       H  0.16801307  0.69046677  0.42442297     0.11100
H1076       H  0.18536627  0.72025211  0.46688664     0.11000
H1077       H  0.12048031  0.74916471  0.48759490     0.11200
H1078       H  0.10350576  0.71955781  0.44519625     0.10000
C1079       C  0.28002880  0.71475892  0.88442805    -0.03800
C1080       C  0.25670656  0.71474444  0.87974941    -0.09600
C1081       C  0.24674823  0.72386678  0.84350713    -0.17200
C1082       C  0.25986615  0.73314898  0.81125160     0.24900
C1083       C  0.28310779  0.73308254  0.81524871    -0.18900
C1084       C  0.29316250  0.72392487  0.85163891    -0.07800
C1085       C  0.24931286  0.74263421  0.77417032    -0.14200
C1086       C  0.24017564  0.75023442  0.74311603    -0.14000
C1087       C  0.23007169  0.75898686  0.70492416     0.24800
C1088       C  0.24364509  0.76706433  0.67218086    -0.19400
C1089       C  0.23421296  0.77489959  0.63435054    -0.07900
C1090       C  0.21096417  0.77478010  0.62852355    -0.03900
C1091       C  0.19735560  0.76690995  0.66184491    -0.09200
C1092       C  0.20688663  0.75903435  0.69984264    -0.16900
H1093       H  0.24605722  0.70787696  0.90436240     0.11300
H1094       H  0.22877303  0.72378313  0.84076752     0.10500
H1095       H  0.29343415  0.74022214  0.79039701     0.10500
H1096       H  0.31111956  0.72430915  0.85439051     0.11000
H1097       H  0.26158413  0.76709710  0.67570052     0.11100
H1098       H  0.24521933  0.78082135  0.60941899     0.11000
H1099       H  0.17943606  0.76653021  0.65830264     0.11200
H1100       H  0.19620982  0.75277766  0.72501845     0.10000
C1101       C  0.20829396  0.78305297  0.36688245    -0.03800
C1102       C  0.22414169  0.79415735  0.34166962    -0.09600
C1103       C  0.23436114  0.78306367  0.30753641    -0.17200
C1104       C  0.22865996  0.76092662  0.29829445     0.24900
C1105       C  0.21172259  0.75045099  0.32132382    -0.18900
C1106       C  0.20158874  0.76141804  0.35530231    -0.07800
C1107       C  0.24122231  0.74821813  0.26775583    -0.14200
C1108       C  0.25190852  0.73690034  0.24352125    -0.14000
C1109       C  0.26466040  0.72433502  0.21305167     0.24800
C1110       C  0.25902642  0.70224791  0.20324173    -0.19400
C1111       C  0.26943132  0.69136254  0.16905928    -0.07900
C1112       C  0.28538922  0.70263400  0.14436597    -0.03900
C1113       C  0.29207752  0.72416562  0.15664449    -0.09200
C1114       C  0.28175579  0.73492701  0.19065565    -0.16900
H1115       H  0.22976533  0.81069809  0.35019820     0.11300
H1116       H  0.24743180  0.79135151  0.28975053     0.10500
H1117       H  0.20708686  0.73340148  0.31436840     0.10500
H1118       H  0.18937616  0.75246678  0.37415274     0.11000
H1119       H  0.24584988  0.69386083  0.22056352     0.11100
H1120       H  0.26382142  0.67489428  0.15999855     0.11000
H1121       H  0.30437048  0.73323796  0.13820461     0.11200
H1122       H  0.28635306  0.75193345  0.19807643     0.10000
C1123       C  0.00183863  0.90036836  0.28044121    -0.03800
C1124       C  0.00089525  0.87742307  0.28955123    -0.09600
C1125       C  0.01808439  0.86700251  0.31177727    -0.17200
C1126       C  0.03655994  0.87925268  0.32529945     0.24900
C1127       C  0.03797695  0.90200377  0.31567586    -0.18900
C1128       C  0.02069742  0.91253668  0.29337499    -0.07800
C1129       C  0.05371535  0.86834986  0.34967408    -0.14200
C1130       C  0.06767372  0.85852796  0.36993951    -0.14000
C1131       C  0.08483847  0.84691886  0.39303349     0.24800
C1132       C  0.10301608  0.83823183  0.37085621    -0.19400
C1133       C  0.12068890  0.82866735  0.39315277    -0.07900
C1134       C  0.12047205  0.82765556  0.43808811    -0.03900
C1135       C  0.10164943  0.83541560  0.46009305    -0.09200
C1136       C  0.08394872  0.84506698  0.43763306    -0.16900
H1137       H  0.98657802  0.86753929  0.28040273     0.11300
H1138       H  0.01678351  0.84941528  0.31900673     0.10500
H1139       H  0.05223506  0.91166067  0.32601247     0.10500
H1140       H  0.02181681  0.93023602  0.28728151     0.11000
H1141       H  0.10383517  0.83942428  0.33636235     0.11100
H1142       H  0.13487545  0.82271194  0.37521922     0.11000
H1143       H  0.10103996  0.83492832  0.49464099     0.11200
H1144       H  0.06988868  0.85165488  0.45511672     0.10000
C1145       C  0.08189539  0.11988244  0.68904005    -0.03800
C1146       C  0.08408913  0.11961046  0.64424695     0.01600
C1147       C  0.09256267  0.13803093  0.62234426    -0.17200
C1148       C  0.09902331  0.15712168  0.64463648     0.24900
C1149       C  0.09613717  0.15795209  0.68909096    -0.18900
C1150       C  0.08756284  0.13946379  0.71118747    -0.07800
C1151       C  0.10951159  0.17522845  0.62168239    -0.14200
C1152       C  0.11875120  0.18941711  0.60067650    -0.14000
C1153       C  0.12977273  0.20618633  0.57504753     0.24800
C1154       C  0.11812720  0.22514440  0.56213127    -0.19400
C1155       C  0.12892585  0.24192658  0.53908082    -0.07900
C1156       C  0.15165929  0.24011556  0.52857834    -0.03900
C1157       C  0.16310291  0.22069149  0.54051788    -0.09200
C1158       C  0.15220655  0.20384253  0.56355840    -0.16900
H1159       H  0.07976189  0.10490276  0.62607383     0.11300
H1160       H  0.09458936  0.13715676  0.58800545     0.10500
H1161       H  0.10100826  0.17265784  0.70677529     0.10500
H1162       H  0.08609411  0.14022029  0.74561607     0.11000
H1163       H  0.10077340  0.22717394  0.57059472     0.11100
H1164       H  0.11957788  0.25666375  0.53063303     0.11000
H1165       H  0.18060038  0.21880950  0.53318639     0.11200
H1166       H  0.16140651  0.18919762  0.57316476     0.10000
C1167       C  0.23873860  0.15290684  0.97517743    -0.03800
C1168       C  0.22134344  0.16492758  0.95591791    -0.09600
C1169       C  0.20263622  0.15381749  0.93965555    -0.17200
C1170       C  0.20103781  0.13060162  0.94258699     0.24900
C1171       C  0.21773946  0.11867220  0.96356609    -0.18900
C1172       C  0.23641590  0.12970755  0.97979489    -0.07800
C1173       C  0.18315339  0.11881102  0.92164329    -0.14200
C1174       C  0.16896339  0.10862415  0.90247175    -0.14000
C1175       C  0.15222514  0.09678847  0.87837521     0.24800
C1176       C  0.15583918  0.09164503  0.83530102    -0.19400
C1177       C  0.13900515  0.08156701  0.81108403    -0.07900
C1178       C  0.11828176  0.07652748  0.82966275    -0.03900
C1179       C  0.11513775  0.08100211  0.87340628    -0.09200
C1180       C  0.13196940  0.09108147  0.89750239    -0.16900
H1181       H  0.22267396  0.18275091  0.95153896     0.11300
H1182       H  0.18981777  0.16324933  0.92346086     0.10500
H1183       H  0.21671610  0.10072122  0.96606467     0.10500
H1184       H  0.24949254  0.11991789  0.99432584     0.11000
H1185       H  0.17147283  0.09593513  0.82013813     0.11100
H1186       H  0.14194089  0.07846876  0.77750204     0.11000
H1187       H  0.09938253  0.07742031  0.88873792     0.11200
H1188       H  0.12897098  0.09491597  0.93080111     0.10000
C1189       C  0.02677183  0.02791278  0.87614520    -0.03800
C1190       C  0.01699190  0.04103186  0.90821407    -0.09600
C1191       C  0.00852484  0.03112266  0.94548702    -0.17200
C1192       C  0.00982060  0.00800999  0.95131511     0.24900
C1193       C  0.02000398  0.99496156  0.92000824    -0.18900
C1194       C  0.02836723  0.00477700  0.88279591    -0.07800
C1195       C  0.00036432  0.99748917  0.98878439    -0.14200
C1196       C  0.99240870  0.98834101  0.01970401    -0.14000
C1197       C  0.98297222  0.97808360  0.05745327     0.24800
C1198       C  0.98220683  0.95485355  0.06198665    -0.19400
C1199       C  0.97375292  0.94517724  0.09953143    -0.07900
C1200       C  0.96599207  0.95865545  0.13305887    -0.03900
C1201       C  0.96645126  0.98194506  0.12766249    -0.09200
C1202       C  0.97485921  0.99151874  0.09031242    -0.16900
H1203       H  0.01543154  0.05884247  0.90407153     0.11300
H1204       H  0.00071276  0.04145137  0.96947834     0.10500
H1205       H  0.02122058  0.97710543  0.92407587     0.10500
H1206       H  0.03586989  0.99415078  0.85893324     0.11000
H1207       H  0.98839088  0.94423105  0.03674769     0.11100
H1208       H  0.97365707  0.92723754  0.10261603     0.11000
H1209       H  0.96057602  0.99289693  0.15264089     0.11200
H1210       H  0.97526984  0.00947311  0.08730175     0.10000
C1211       C  0.03779864  0.03319216  0.61435787    -0.03800
C1212       C  0.01747506  0.04196007  0.59990908    -0.09600
C1213       C  0.00647203  0.03239565  0.56529627    -0.17200
C1214       C  0.01561034  0.01393727  0.54479679     0.24900
C1215       C  0.03661384  0.00605597  0.55701237    -0.18900
C1216       C  0.04777546  0.01574969  0.59161361    -0.07800
C1217       C  0.00240762  0.00197632  0.51419622    -0.14200
C1218       C  0.99066275  0.99160877  0.49019251    -0.14000
C1219       C  0.97758456  0.97890475  0.46050393     0.24800
C1220       C  0.98706723  0.96034988  0.44096335    -0.19400
C1221       C  0.97588929  0.94962974  0.40786193    -0.07900
C1222       C  0.95505902  0.95736178  0.39380358    -0.03900
C1223       C  0.94484310  0.97499731  0.41560022    -0.09200
C1224       C  0.95615568  0.98581153  0.44880723    -0.16900
H1225       H  0.00945046  0.05537489  0.61705054     0.11300
H1226       H  0.99027798  0.03864781  0.55602198     0.10500
H1227       H  0.04380110  0.99173374  0.54128354     0.10500
H1228       H  0.06324520  0.00851436  0.60259461     0.11000
H1229       H  0.00357541  0.95481806  0.44989613     0.11100
H1230       H  0.98414013  0.93609890  0.39147052     0.11000
H1231       H  0.92898400  0.98146335  0.40489979     0.11200
H1232       H  0.94867273  0.00016740  0.46389555     0.10000
C1233       C  0.87319380  0.15909350  0.56961464    -0.03800
C1234       C  0.89130578  0.15013645  0.54709271    -0.09600
C1235       C  0.90929899  0.14084303  0.56926431    -0.17200
C1236       C  0.90939856  0.14059169  0.61403674     0.24900
C1237       C  0.89189836  0.15037171  0.63651209    -0.18900
C1238       C  0.87392806  0.15952995  0.61452827    -0.07800
C1239       C  0.92673940  0.12938061  0.63729483    -0.14200
C1240       C  0.94043889  0.11974595  0.65848188    -0.14000
C1241       C  0.95677274  0.10859807  0.68441411     0.24800
C1242       C  0.95725384  0.08532080  0.68667959    -0.19400
C1243       C  0.97396577  0.07458518  0.71005956    -0.07900
C1244       C  0.99043573  0.08706818  0.73122516    -0.03900
C1245       C  0.98932584  0.11044430  0.72987863    -0.09200
C1246       C  0.97259797  0.12110368  0.70671572    -0.16900
H1247       H  0.89111184  0.14944244  0.51253934     0.11300
H1248       H  0.92279570  0.13331803  0.55154715     0.10500
H1249       H  0.89182909  0.15035460  0.67111671     0.10500
H1250       H  0.86027702  0.16640311  0.63277678     0.11000
H1251       H  0.94504431  0.07547496  0.66956927     0.11100
H1252       H  0.97456306  0.05658331  0.71003528     0.11000
H1253       H  0.00179325  0.12052481  0.74573842     0.11200
H1254       H  0.97233231  0.13911200  0.70537504     0.10000
C1255       C  0.08735031  0.98478060  0.72577386    -0.03800
C1256       C  0.07582671  0.96850839  0.70212273    -0.09600
C1257       C  0.08700944  0.94988298  0.68621618    -0.17200
C1258       C  0.10978447  0.94715754  0.69401840     0.24900
C1259       C  0.12106781  0.96257405  0.71963647    -0.18900
C1260       C  0.10995347  0.98127886  0.73537788    -0.07800
C1261       C  0.12188873  0.92960102  0.67301357    -0.14200
C1262       C  0.13192400  0.91556514  0.65335001    -0.14000
C1263       C  0.14328899  0.89878687  0.62877081     0.24800
C1264       C  0.14801953  0.87815282  0.64721141    -0.19400
C1265       C  0.15764325  0.86130358  0.62275337    -0.07900
C1266       C  0.16259813  0.86476223  0.57924826    -0.03900
C1267       C  0.15844259  0.88579798  0.56127777    -0.09200
C1268       C  0.14885249  0.90269647  0.58593225    -0.16900
H1269       H  0.05848234  0.97077965  0.69384392     0.11300
H1270       H  0.07808653  0.93808152  0.66641175     0.10500
H1271       H  0.13867516  0.96062251  0.72600854     0.10500
H1272       H  0.11928604  0.99347859  0.75350080     0.11000
H1273       H  0.14380523  0.87490142  0.68027526     0.11100
H1274       H  0.16052182  0.84530644  0.63765848     0.11000
H1275       H  0.16196014  0.88897854  0.52791485     0.11200
H1276       H  0.14528773  0.91863021  0.57130121     0.10000
C1277       C  0.33856219  0.75075428  0.02734853    -0.03800
C1278       C  0.36191237  0.75198510  0.03023550    -0.09600
C1279       C  0.37215669  0.76899205  0.05337262    -0.17200
C1280       C  0.35926018  0.78500988  0.07402965     0.24900
C1281       C  0.33603581  0.78445480  0.07007260    -0.18900
C1282       C  0.32571076  0.76742983  0.04676934    -0.07800
C1283       C  0.36996317  0.80160685  0.10006054    -0.14200
C1284       C  0.37934450  0.81550117  0.12124406    -0.14000
C1285       C  0.39033016  0.83311728  0.14419154     0.24800
C1286       C  0.39389549  0.83163822  0.18835857    -0.19400
C1287       C  0.40324637  0.84962609  0.21057808    -0.07900
C1288       C  0.40902075  0.86926671  0.18873641    -0.03900
C1289       C  0.40605154  0.87018800  0.14415700    -0.09200
C1290       C  0.39677699  0.85227696  0.12215014    -0.16900
H1291       H  0.37228474  0.73938566  0.01570586     0.11300
H1292       H  0.39013302  0.76932549  0.05601376     0.10500
H1293       H  0.32589934  0.79684132  0.08585793     0.10500
H1294       H  0.30771384  0.76678289  0.04549874     0.11000
H1295       H  0.38900215  0.81681917  0.20571580     0.11100
H1296       H  0.40527084  0.84844604  0.24486641     0.11000
H1297       H  0.41039338  0.88500656  0.12628474     0.11200
H1298       H  0.39417955  0.85357895  0.08799101     0.10000
C1299       C  0.46676701  0.95875842  0.37629317    -0.03800
C1300       C  0.47782108  0.94570881  0.40694028    -0.09600
C1301       C  0.48682429  0.95560493  0.44370464    -0.17200
C1302       C  0.48476147  0.97859072  0.45031913     0.24900
C1303       C  0.47335576  0.99153129  0.42042437    -0.18900
C1304       C  0.46447025  0.98174537  0.38374943    -0.07800
C1305       C  0.49462750  0.98916595  0.48715275    -0.14200
C1306       C  0.50280039  0.99858251  0.51744669    -0.14000
C1307       C  0.51246159  0.00925341  0.55438278     0.24800
C1308       C  0.50954601  0.03209126  0.56166937    -0.19400
C1309       C  0.51794969  0.04197799  0.59897393    -0.07900
C1310       C  0.52921308  0.02904600  0.62952021    -0.03900
C1311       C  0.53263550  0.00628858  0.62110565    -0.09200
C1312       C  0.52433640  0.99651497  0.58391541    -0.16900
H1313       H  0.47998689  0.92802390  0.40198636     0.11300
H1314       H  0.49563083  0.94539643  0.46664559     0.10500
H1315       H  0.47157774  0.00928983  0.42516742     0.10500
H1316       H  0.45600684  0.99229014  0.36090333     0.11000
H1317       H  0.50041949  0.04215385  0.53895343     0.11100
H1318       H  0.51501863  0.05949879  0.60455018     0.11000
H1319       H  0.54138788  0.99586433  0.64375351     0.11200
H1320       H  0.52682087  0.97888650  0.57861430     0.10000
C1321       C  0.53731362  0.03013710  0.89181584    -0.03800
C1322       C  0.51675269  0.03855244  0.90573252    -0.09600
C1323       C  0.50598660  0.02919534  0.94083716    -0.17200
C1324       C  0.51556278  0.01125308  0.96236682     0.24900
C1325       C  0.53665445  0.00356807  0.95029712    -0.18900
C1326       C  0.54758780  0.01307216  0.91520482    -0.07800
C1327       C  0.50278648  0.99972205  0.99427591    -0.14200
C1328       C  0.49112277  0.98991060  0.01930594    -0.14000
C1329       C  0.47759150  0.97804746  0.04959850     0.24800
C1330       C  0.48478593  0.95748223  0.06513742    -0.19400
C1331       C  0.47333830  0.94716083  0.09847957    -0.07900
C1332       C  0.45443209  0.95720470  0.11635886    -0.03900
C1333       C  0.44637501  0.97709979  0.09872717    -0.09200
C1334       C  0.45802468  0.98756360  0.06557686    -0.16900
H1335       H  0.50848091  0.05166414  0.88809911     0.11300
H1336       H  0.48971115  0.03528271  0.94993362     0.10500
H1337       H  0.54417026  0.98962364  0.96675875     0.10500
H1338       H  0.56323730  0.00609033  0.90462792     0.11000
H1339       H  0.49984140  0.94994355  0.05289358     0.11100
H1340       H  0.47995103  0.93194358  0.11196166     0.11000
H1341       H  0.43215741  0.98538655  0.11273305     0.11200
H1342       H  0.45234658  0.00351276  0.05376138     0.10000
C1343       C  0.32852524  0.12100762  0.07817039    -0.03800
C1344       C  0.33037328  0.12299623  0.12283663    -0.09600
C1345       C  0.33979459  0.10591451  0.14707760    -0.17200
C1346       C  0.34748007  0.08662223  0.12708865     0.24900
C1347       C  0.34479148  0.08403849  0.08294085    -0.18900
C1348       C  0.33531253  0.10109626  0.05859845    -0.07800
C1349       C  0.35921016  0.07007999  0.15150705    -0.14200
C1350       C  0.36964334  0.05639047  0.17125261    -0.14000
C1351       C  0.38199882  0.03934472  0.19310481     0.24800
C1352       C  0.40507493  0.03772002  0.18774456    -0.19400
C1353       C  0.41664405  0.01962646  0.20494064    -0.07900
C1354       C  0.40518931  0.00289127  0.22748958    -0.03900
C1355       C  0.38221078  0.00536423  0.23468417    -0.09200
C1356       C  0.37071330  0.02344286  0.21752014    -0.16900
H1357       H  0.32528895  0.13809236  0.13890541     0.11300
H1358       H  0.34172210  0.10806042  0.18123186     0.10500
H1359       H  0.35065979  0.06914221  0.06714493     0.10500
H1360       H  0.33423077  0.09909129  0.02429719     0.11000
H1361       H  0.41397988  0.04995462  0.16887936     0.11100
H1362       H  0.43427646  0.01810770  0.19850042     0.11000
H1363       H  0.37289007  0.99275338  0.25179329     0.11200
H1364       H  0.35286964  0.02454755  0.22191573     0.10000
C1365       C  0.25409008  0.83655359  0.47785764    -0.03800
C1366       C  0.27170078  0.82538085  0.45760190    -0.09600
C1367       C  0.28981885  0.83733049  0.44114691    -0.17200
C1368       C  0.29063620  0.86054563  0.44494857     0.24900
C1369       C  0.27381784  0.87162540  0.46720515    -0.18900
C1370       C  0.25570448  0.85974170  0.48361697    -0.07800
C1371       C  0.30789218  0.87311811  0.42372420    -0.14200
C1372       C  0.32191260  0.88344343  0.40435181    -0.14000
C1373       C  0.33894933  0.89482477  0.38019604     0.24800
C1374       C  0.33563771  0.89972404  0.33690609    -0.19400
C1375       C  0.35297632  0.90875086  0.31246898    -0.07900
C1376       C  0.37392658  0.91291545  0.33100192    -0.03900
C1377       C  0.37673870  0.90887821  0.37498777    -0.09200
C1378       C  0.35938797  0.89987928  0.39932572    -0.16900
H1379       H  0.27091174  0.80759206  0.45238639     0.11300
H1380       H  0.30275908  0.82854930  0.42404488     0.10500
H1381       H  0.27427196  0.88956015  0.47049496     0.10500
H1382       H  0.24244713  0.86887332  0.49903999     0.11000
H1383       H  0.31987641  0.89593809  0.32171724     0.11100
H1384       H  0.35023526  0.91163767  0.27873920     0.11000
H1385       H  0.39261015  0.91191462  0.39032587     0.11200
H1386       H  0.36215270  0.89623236  0.43279660     0.10000
C1387       C  0.62180899  0.83136958  0.07019785    -0.03800
C1388       C  0.60279716  0.83858343  0.04797355    -0.09600
C1389       C  0.58501655  0.84830383  0.07008248    -0.17200
C1390       C  0.58603452  0.85082635  0.11455842     0.24900
C1391       C  0.60457589  0.84304410  0.13691506    -0.18900
C1392       C  0.62229840  0.83339529  0.11499637    -0.07800
C1393       C  0.56842901  0.86179398  0.13754679    -0.14200
C1394       C  0.55419560  0.87083687  0.15839091    -0.14000
C1395       C  0.53697250  0.88095956  0.18376428     0.24800
C1396       C  0.53744990  0.90380408  0.19257658    -0.19400
C1397       C  0.52008628  0.91365535  0.21557546    -0.07900
C1398       C  0.50200893  0.90074579  0.22996261    -0.03900
C1399       C  0.50203221  0.87770917  0.22189952    -0.09200
C1400       C  0.51938677  0.86792258  0.19902867    -0.16900
H1401       H  0.60196948  0.83735775  0.01351258     0.11300
H1402       H  0.57069331  0.85421923  0.05244084     0.10500
H1403       H  0.60552835  0.84480367  0.17130414     0.10500
H1404       H  0.63664026  0.82797312  0.13314744     0.11000
H1405       H  0.55100863  0.91406611  0.18098194     0.11100
H1406       H  0.52046280  0.93144787  0.22088621     0.11000
H1407       H  0.48833773  0.86729796  0.23232031     0.11200
H1408       H  0.51886178  0.85022844  0.19253937     0.10000
loop_ 
_geom_bond_atom_site_label_1 
_geom_bond_atom_site_label_2 
_geom_bond_distance 
_geom_bond_site_symmetry_2 
_ccdc_geom_bond_type 
O1          Cr19   2.013       .  S
O1            C9   1.267       .  A
O2          Cr19   1.956       .  S
O2            C3   1.254       .  A
C3            O4   1.270       .  A
C3         C1332   1.469       .  S
O4          Cr20   2.035       .  S
O5          Cr20   1.959       .  S
O5            C6   1.258       .  A
C6            O7   1.271       .  A
C6         C1288   1.481       .  S
O7          Cr21   2.031       .  S
O8          Cr21   1.970       .  S
O8            C9   1.258       .  A
C9         C1398   1.483       .  S
O10         Cr19   1.958       .  S
O10          C18   1.258       .  A
O11         Cr19   2.026       .  S
O11          C12   1.270       .  A
C12          O13   1.258       .  A
C12        C1354   1.480   1_565  S
O13         Cr20   1.964       .  S
O14         Cr20   2.024       .  S
O14          C15   1.271       .  A
C15          O16   1.261       .  A
C15        C1376   1.486       .  S
O16         Cr21   1.973       .  S
O17         Cr21   2.037       .  S
O17          C18   1.274       .  A
C18        C1299   1.484       .  S
Cr19         O22   1.761       .  S
Cr20         O22   1.761       .  S
Cr21         O22   1.766       .  S
O23         Cr41   2.015       .  S
O23          C31   1.267       .  A
O24         Cr41   1.954       .  S
O24          C25   1.254       .  A
C25          O26   1.269       .  A
C25        C1211   1.470       .  S
O26         Cr42   2.033       .  S
O27         Cr42   1.966       .  S
O27          C28   1.259       .  A
C28          O29   1.272       .  A
C28        C1145   1.488       .  S
O29         Cr43   2.036       .  S
O30         Cr43   1.963       .  S
O30          C31   1.256       .  A
C31        C1244   1.480   1_455  S
O32         Cr41   1.964       .  S
O32          C40   1.259       .  A
O33         Cr41   2.023       .  S
O33          C34   1.270       .  A
C34          O35   1.260       .  A
C34        C1255   1.483   1_545  S
O35         Cr42   1.974       .  S
O36         Cr42   2.027       .  S
O36          C37   1.271       .  A
C37          O38   1.259       .  A
C37        C1178   1.484       .  S
O38         Cr43   1.966       .  S
O39         Cr43   2.038       .  S
O39          C40   1.274       .  A
C40        C1189   1.489       .  S
Cr41         O44   1.762       .  S
Cr42         O44   1.766       .  S
Cr43         O44   1.767       .  S
O45         Cr63   2.018       .  S
O45          C53   1.269       .  A
O46         Cr63   1.949       .  S
O46          C47   1.252       .  A
C47          O48   1.272       .  A
C47        C1101   1.476       .  S
O48         Cr64   2.043       .  S
O49         Cr64   1.961       .  S
O49          C50   1.257       .  A
C50          O51   1.271       .  A
C50        C1134   1.480       .  S
O51         Cr65   2.031       .  S
O52         Cr65   1.958       .  S
O52          C53   1.256       .  A
C53        C1068   1.479       .  S
O54         Cr63   1.959       .  S
O54          C62   1.258       .  A
O55         Cr63   2.030       .  S
O55          C56   1.271       .  A
C56          O57   1.258       .  A
C56        C1365   1.483       .  S
O57         Cr64   1.964       .  S
O58         Cr64   2.035       .  S
O58          C59   1.274       .  A
C59          O60   1.259       .  A
C59        C1266   1.485       .  S
O60         Cr65   1.961       .  S
O61         Cr65   2.033       .  S
O61          C62   1.272       .  A
C62        C1090   1.483       .  S
Cr63         O66   1.759       .  S
Cr64         O66   1.761       .  S
Cr65         O66   1.765       .  S
O67         Cr85   1.959       .  S
O67          C75   1.256       .  A
O68         Cr85   2.035       .  S
O68          C69   1.272       .  A
C69          O70   1.257       .  A
C69        C1013   1.483       .  S
O70         Cr86   1.958       .  S
O71         Cr86   2.039       .  S
O71          C72   1.270       .  A
C72          O73   1.253       .  A
C72        C1222   1.472       .  S
O73         Cr87   1.950       .  S
O74         Cr87   2.022       .  S
O74          C75   1.269       .  A
C75        C1123   1.484   1_655  S
O76         Cr85   2.041       .  S
O76          C84   1.275       .  A
O77         Cr85   1.963       .  S
O77          C78   1.259       .  A
C78          O79   1.272       .  A
C78         C991   1.484       .  S
O79         Cr86   2.032       .  S
O80         Cr86   1.965       .  S
O80          C81   1.259       .  A
C81          O82   1.272       .  A
C81        C1046   1.484   1_565  S
O82         Cr87   2.032       .  S
O83         Cr87   1.959       .  S
O83          C84   1.258       .  A
C84        C1200   1.489       .  S
Cr85         O88   1.764       .  S
Cr86         O88   1.763       .  S
Cr87         O88   1.760       .  S
O89        Cr107   1.967       .  S
O89          C97   1.258       .  A
O90        Cr107   2.029       .  S
O90          C91   1.270       .  A
C91          O92   1.257       .  A
C91        C1233   1.479       .  S
O92        Cr108   1.960       .  S
O93        Cr108   2.039       .  S
O93          C94   1.271       .  A
C94          O95   1.253       .  A
C94         C947   1.475       .  S
O95        Cr109   1.950       .  S
O96        Cr109   2.015       .  S
O96          C97   1.268       .  A
C97         C969   1.482       .  S
O98        Cr107   2.031       .  S
O98         C106   1.272       .  A
O99        Cr107   1.968       .  S
O99         C100   1.261       .  A
C100        O101   1.273       .  A
C100       C1035   1.485       .  S
O101       Cr108   2.030       .  S
O102       Cr108   1.962       .  S
O102        C103   1.257       .  A
C103        O104   1.270       .  A
C103        C903   1.481       .  S
O104       Cr109   2.028       .  S
O105       Cr109   1.962       .  S
O105        C106   1.259       .  A
C106        C925   1.484       .  S
Cr107       O110   1.766       .  S
Cr108       O110   1.760       .  S
Cr109       O110   1.760       .  S
O111       Cr129   1.965       .  S
O111        C119   1.258       .  A
O112       Cr129   2.037       .  S
O112        C113   1.273       .  A
C113        O114   1.258       .  A
C113        C859   1.485       .  S
O114       Cr130   1.963       .  S
O115       Cr130   2.035       .  S
O115        C116   1.270       .  A
C116        O117   1.253       .  A
C116        C837   1.473       .  S
O117       Cr131   1.952       .  S
O118       Cr131   2.024       .  S
O118        C119   1.270       .  A
C119       C1156   1.487       .  S
O120       Cr129   2.040       .  S
O120        C128   1.274       .  A
O121       Cr129   1.966       .  S
O121        C122   1.259       .  A
C122        O123   1.272       .  A
C122        C881   1.483       .  S
O123       Cr130   2.028       .  S
O124       Cr130   1.964       .  S
O124        C125   1.259       .  A
C125        O126   1.272       .  A
C125        C793   1.483       .  S
O126       Cr131   2.032       .  S
O127       Cr131   1.961       .  S
O127        C128   1.258       .  A
C128        C815   1.489       .  S
Cr129       O132   1.765       .  S
Cr130       O132   1.763       .  S
Cr131       O132   1.760       .  S
O133       Cr151   1.967       .  S
O133        C141   1.258       .  A
O134       Cr151   2.026       .  S
O134        C135   1.270       .  A
C135        O136   1.258       .  A
C135       C1057   1.478       .  S
O136       Cr152   1.964       .  S
O137       Cr152   2.031       .  S
O137        C138   1.269       .  A
C138        O139   1.254       .  A
C138        C749   1.469       .  S
O139       Cr153   1.955       .  S
O140       Cr153   2.018       .  S
O140        C141   1.268       .  A
C141        C716   1.483   1_455  S
O142       Cr151   2.030       .  S
O142        C150   1.272       .  A
O143       Cr151   1.967       .  S
O143        C144   1.260       .  A
C144        O145   1.271       .  A
C144        C782   1.481       .  S
O145       Cr152   2.023       .  S
O146       Cr152   1.964       .  S
O146        C147   1.258       .  A
C147        O148   1.271       .  A
C147        C892   1.483       .  S
O148       Cr153   2.031       .  S
O149       Cr153   1.961       .  S
O149        C150   1.259       .  A
C150        C727   1.483       .  S
Cr151       O154   1.766       .  S
Cr152       O154   1.762       .  S
Cr153       O154   1.760       .  S
O155       Cr173   2.018       .  S
O155        C163   1.269       .  A
O156       Cr173   1.946       .  S
O156        C157   1.253       .  A
C157        O158   1.270       .  A
C157        C760   1.469       .  S
O158       Cr174   2.034       .  S
O159       Cr174   1.963       .  S
O159        C160   1.257       .  A
C160        O161   1.270       .  A
C160        C980   1.482       .  S
O161       Cr175   2.031       .  S
O162       Cr175   1.969       .  S
O162        C163   1.259       .  A
C163        C870   1.484   1_655  S
O164       Cr173   1.960       .  S
O164        C172   1.258       .  A
O165       Cr173   2.028       .  S
O165        C166   1.270       .  A
C166        O167   1.257       .  A
C166        C672   1.484       .  S
O167       Cr174   1.966       .  S
O168       Cr174   2.024       .  S
O168        C169   1.272       .  A
C169        O170   1.260       .  A
C169        C694   1.480       .  S
O170       Cr175   1.963       .  S
O171       Cr175   2.035       .  S
O171        C172   1.273       .  A
C172        C738   1.483       .  S
Cr173       O176   1.759       .  S
Cr174       O176   1.761       .  S
Cr175       O176   1.767       .  S
O177       Cr195   1.959   1_554  S
O177        C185   1.257       .  A
O178       Cr195   2.034   1_554  S
O178        C179   1.271       .  A
C179        O180   1.256       .  A
C179        C650   1.480       .  S
O180       Cr196   1.957       .  S
O181       Cr196   2.043       .  S
O181        C182   1.271       .  A
C182        O183   1.252       .  A
C182       C1112   1.476       .  S
O183       Cr197   1.949       .  S
O184       Cr197   2.019       .  S
O184        C185   1.269       .  A
C185       C1277   1.479       .  S
O186       Cr195   2.034       .  S
O186        C194   1.273       .  A
O187       Cr195   1.964       .  S
O187        C188   1.259       .  A
C188        O189   1.274       .  A
C188        C628   1.486       .  S
O189       Cr196   2.035   1_556  S
O190       Cr196   1.962       .  S
O190        C191   1.258       .  A
C191        O192   1.271       .  A
C191        C771   1.482       .  S
O192       Cr197   2.029       .  S
O193       Cr197   1.957   1_556  S
O193        C194   1.258       .  A
C194       C1079   1.483       .  S
Cr195       O198   1.765   1_556  S
Cr196       O198   1.761       .  S
Cr197       O198   1.758       .  S
O199       Cr217   2.019   1_554  S
O199        C207   1.268       .  A
O200       Cr217   1.950       .  S
O200        C201   1.253       .  A
C201        O202   1.272       .  A
C201        C958   1.475       .  S
O202       Cr218   2.042       .  S
O203       Cr218   1.958       .  S
O203        C204   1.257       .  A
C204        O205   1.271   1_556  A
C204        C551   1.481       .  S
O205       Cr219   2.032       .  S
O206       Cr219   1.968       .  S
O206        C207   1.258       .  A
C207        C595   1.485   1_554  S
O208       Cr217   1.959   1_554  S
O208        C216   1.258       .  A
O209       Cr217   2.027       .  S
O209        C210   1.270       .  A
C210        O211   1.257       .  A
C210        C683   1.480       .  S
O211       Cr218   1.962       .  S
O212       Cr218   2.034   1_554  S
O212        C213   1.273       .  A
C213        O214   1.260       .  A
C213        C573   1.487       .  S
O214       Cr219   1.967       .  S
O215       Cr219   2.034       .  S
O215        C216   1.273       .  A
C216        C936   1.484       .  S
Cr217       O220   1.760   1_556  S
Cr218       O220   1.762   1_556  S
Cr219       O220   1.764       .  S
O221       Cr239   1.964       .  S
O221        C229   1.256       .  A
O222       Cr239   2.038       .  S
O222        C223   1.273       .  A
C223        O224   1.257       .  A
C223        C529   1.484       .  S
O224       Cr240   1.956       .  S
O225       Cr240   2.032       .  S
O225        C226   1.270       .  A
C226        O227   1.253       .  A
C226        C518   1.468       .  S
O227       Cr241   1.954       .  S
O228       Cr241   2.016       .  S
O228        C229   1.267       .  A
C229        C562   1.480       .  S
O230       Cr239   2.041       .  S
O230        C238   1.275       .  A
O231       Cr239   1.965       .  S
O231        C232   1.259       .  A
C232        O233   1.271       .  A
C232        C804   1.482       .  S
O233       Cr240   2.025       .  S
O234       Cr240   1.967       .  S
O234        C235   1.259       .  A
C235        O236   1.271       .  A
C235        C617   1.484       .  S
O236       Cr241   2.030       .  S
O237       Cr241   1.961       .  S
O237        C238   1.259       .  A
C238        C496   1.487       .  S
Cr239       O242   1.766       .  S
Cr240       O242   1.763       .  S
Cr241       O242   1.760       .  S
O243       Cr261   2.018   1_554  S
O243        C251   1.268       .  A
O244       Cr261   1.953       .  S
O244        C245   1.253       .  A
C245        O246   1.270       .  A
C245        C848   1.471       .  S
O246       Cr262   2.033       .  S
O247       Cr262   1.963       .  S
O247        C248   1.258       .  A
C248        O249   1.272   1_556  A
C248        C474   1.484       .  S
O249       Cr263   2.036       .  S
O250       Cr263   1.966       .  S
O250        C251   1.258       .  A
C251        C540   1.483   1_554  S
O252       Cr261   1.961   1_554  S
O252        C260   1.259       .  A
O253       Cr261   2.030       .  S
O253        C254   1.271       .  A
C254        O255   1.259       .  A
C254       C1167   1.484       .  S
O255       Cr262   1.966       .  S
O256       Cr262   2.026   1_554  S
O256        C257   1.272       .  A
C257        O258   1.260       .  A
C257       C1343   1.481       .  S
O258       Cr263   1.966       .  S
O259       Cr263   2.039       .  S
O259        C260   1.274       .  A
C260        C826   1.488       .  S
Cr261       O264   1.760   1_556  S
Cr262       O264   1.762   1_556  S
Cr263       O264   1.766       .  S
O265       Cr283   1.964       .  S
O265        C273   1.258       .  A
O266       Cr283   2.037       .  S
O266        C267   1.272       .  A
C267        O268   1.257       .  A
C267        C606   1.484       .  S
O268       Cr284   1.962       .  S
O269       Cr284   2.034       .  S
O269        C270   1.270       .  A
C270        O271   1.254       .  A
C270       C1321   1.471       .  S
O271       Cr285   1.952       .  S
O272       Cr285   2.022       .  S
O272        C273   1.270       .  A
C273        C463   1.485       .  S
O274       Cr283   2.038       .  S
O274        C282   1.273       .  A
O275       Cr283   1.964       .  S
O275        C276   1.259       .  A
C276        O277   1.272       .  A
C276        C914   1.481       .  S
O277       Cr284   2.026       .  S
O278       Cr284   1.964       .  S
O278        C279   1.257       .  A
C279        O280   1.270       .  A
C279        C441   1.482   1_545  S
O280       Cr285   2.028       .  S
O281       Cr285   1.960       .  S
O281        C282   1.258       .  A
C282       C1310   1.485       .  S
Cr283       O286   1.765       .  S
Cr284       O286   1.761       .  S
Cr285       O286   1.760       .  S
O287       Cr305   1.962   1_554  S
O287        C295   1.257       .  A
O288       Cr305   2.033   1_554  S
O288        C289   1.271       .  A
C289        O290   1.258       .  A
C289       C1387   1.482       .  S
O290       Cr306   1.962       .  S
O291       Cr306   2.039       .  S
O291        C292   1.271       .  A
C292        O293   1.254       .  A
C292        C419   1.477       .  S
O293       Cr307   1.952       .  S
O294       Cr307   2.019   1_556  S
O294        C295   1.269   1_556  A
C295        C386   1.481       .  S
O296       Cr305   2.038       .  S
O296        C304   1.273       .  A
O297       Cr305   1.964       .  S
O297        C298   1.260       .  A
C298        O299   1.272       .  A
C298        C452   1.481       .  S
O299       Cr306   2.029   1_556  S
O300       Cr306   1.966       .  S
O300        C301   1.258       .  A
C301        O302   1.271       .  A
C301       C1002   1.482       .  S
O302       Cr307   2.028       .  S
O303       Cr307   1.961   1_556  S
O303        C304   1.258       .  A
C304        C397   1.485       .  S
Cr305       O308   1.766   1_556  S
Cr306       O308   1.761       .  S
Cr307       O308   1.759       .  S
O309       Cr327   2.020       .  S
O309        C317   1.269       .  A
O310       Cr327   1.951       .  S
O310        C311   1.253       .  A
C311        O312   1.272       .  A
C311        C430   1.477       .  S
O312       Cr328   2.043       .  S
O313       Cr328   1.959       .  S
O313        C314   1.257       .  A
C314        O315   1.272       .  A
C314        C705   1.482       .  S
O315       Cr329   2.038       .  S
O316       Cr329   1.964       .  S
O316        C317   1.257       .  A
C317       C1024   1.482       .  S
O318       Cr327   1.957       .  S
O318        C326   1.258       .  A
O319       Cr327   2.034       .  S
O319        C320   1.272       .  A
C320        O321   1.258       .  A
C320        C353   1.484       .  S
O321       Cr328   1.963       .  S
O322       Cr328   2.032       .  S
O322        C323   1.273       .  A
C323        O324   1.259       .  A
C323        C661   1.484       .  S
O324       Cr329   1.965       .  S
O325       Cr329   2.040       .  S
O325        C326   1.274       .  A
C326        C408   1.487       .  S
Cr327       O330   1.758       .  S
Cr328       O330   1.760       .  S
Cr329       O330   1.766       .  S
O331       Cr349   2.018       .  S
O331        C339   1.268       .  A
O332       Cr349   1.953       .  S
O332        C333   1.254       .  A
C333        O334   1.270       .  A
C333        C507   1.470       .  S
O334       Cr350   2.034       .  S
O335       Cr350   1.962       .  S
O335        C336   1.258       .  A
C336        O337   1.271       .  A
C336        C375   1.483       .  S
O337       Cr351   2.031       .  S
O338       Cr351   1.965       .  S
O338        C339   1.256       .  A
C339        C639   1.483       .  S
O340       Cr349   1.961       .  S
O340        C348   1.259       .  A
O341       Cr349   2.032       .  S
O341        C342   1.271       .  A
C342        O343   1.259       .  A
C342        C584   1.484       .  S
O343       Cr350   1.969       .  S
O344       Cr350   2.026       .  S
O344        C345   1.272       .  A
C345        O346   1.260       .  A
C345        C364   1.484       .  S
O346       Cr351   1.967       .  S
O347       Cr351   2.038       .  S
O347        C348   1.274       .  A
C348        C485   1.488       .  S
Cr349       O352   1.761       .  S
Cr350       O352   1.763       .  S
Cr351       O352   1.766       .  S
C353        C354   1.407       .  A
C353        C358   1.409       .  A
C354        C355   1.402       .  A
C354        H367   1.083       .  S
C355        C356   1.402       .  A
C355        H368   1.083       .  S
C356        C357   1.398       .  A
C356        C359   1.443       .  S
C357        C358   1.398       .  A
C357        H369   1.084       .  S
C358        H370   1.083       .  S
C359        C360   1.208       .  T
C360        C361   1.443       .  S
C361        C362   1.401       .  A
C361        C366   1.399       .  A
C362        C363   1.400       .  A
C362        H371   1.083       .  S
C363        C364   1.407       .  A
C363        H372   1.083       .  S
C364        C365   1.409       .  A
C365        C366   1.399       .  A
C365        H373   1.083       .  S
C366        H374   1.083       .  S
C375        C376   1.409       .  A
C375        C380   1.407       .  A
C376        C377   1.396       .  A
C376        H389   1.083       .  S
C377        C378   1.397       .  A
C377        H390   1.084       .  S
C378        C379   1.402       .  A
C378        C381   1.441       .  S
C379        C380   1.403       .  A
C379        H391   1.083       .  S
C380        H392   1.083       .  S
C381        C382   1.207       .  T
C382        C383   1.441       .  S
C383        C384   1.398       .  A
C383        C388   1.402       .  A
C384        C385   1.397       .  A
C384        H393   1.084       .  S
C385        C386   1.409       .  A
C385        H394   1.083       .  S
C386        C387   1.406       .  A
C387        C388   1.401       .  A
C387        H395   1.083       .  S
C388        H396   1.083       .  S
C397        C398   1.409       .  A
C397        C402   1.407       .  A
C398        C399   1.396       .  A
C398        H411   1.083       .  S
C399        C400   1.397       .  A
C399        H412   1.084       .  S
C400        C401   1.404       .  A
C400        C403   1.445       .  S
C401        C402   1.405       .  A
C401        H413   1.083       .  S
C402        H414   1.083       .  S
C403        C404   1.209       .  T
C404        C405   1.445       .  S
C405        C406   1.397       .  A
C405        C410   1.404       .  A
C406        C407   1.396       .  A
C406        H415   1.084       .  S
C407        C408   1.410       .  A
C407        H416   1.083       .  S
C408        C409   1.407       .  A
C409        C410   1.405       .  A
C409        H417   1.083       .  S
C410        H418   1.083       .  S
C419        C420   1.408       .  A
C419        C424   1.405       .  A
C420        C421   1.395       .  A
C420        H433   1.084       .  S
C421        C422   1.397       .  A
C421        H434   1.084       .  S
C422        C423   1.403       .  A
C422        C425   1.441       .  S
C423        C424   1.403       .  A
C423        H435   1.083       .  S
C424        H436   1.083       .  S
C425        C426   1.207       .  T
C426        C427   1.441       .  S
C427        C428   1.397       .  A
C427        C432   1.403       .  A
C428        C429   1.394       .  A
C428        H437   1.084       .  S
C429        C430   1.408       .  A
C429        H438   1.084       .  S
C430        C431   1.405       .  A
C431        C432   1.403       .  A
C431        H439   1.083       .  S
C432        H440   1.083       .  S
C441        C442   1.409       .  A
C441        C446   1.407       .  A
C442        C443   1.397       .  A
C442        H455   1.083       .  S
C443        C444   1.398       .  A
C443        H456   1.084       .  S
C444        C445   1.401       .  A
C444        C447   1.441       .  S
C445        C446   1.400       .  A
C445        H457   1.083       .  S
C446        H458   1.083       .  S
C447        C448   1.207       .  T
C448        C449   1.441       .  S
C449        C450   1.398       .  A
C449        C454   1.401       .  A
C450        C451   1.397       .  A
C450        H459   1.084       .  S
C451        C452   1.408       .  A
C451        H460   1.083       .  S
C452        C453   1.407       .  A
C453        C454   1.400       .  A
C453        H461   1.083       .  S
C454        H462   1.083       .  S
C463        C464   1.409       .  A
C463        C468   1.408       .  A
C464        C465   1.396       .  A
C464        H477   1.083       .  S
C465        C466   1.398       .  A
C465        H478   1.084       .  S
C466        C467   1.403       .  A
C466        C469   1.444       .  S
C467        C468   1.404       .  A
C467        H479   1.083       .  S
C468        H480   1.083       .  S
C469        C470   1.209       .  T
C470        C471   1.444       .  S
C471        C472   1.403       .  A
C471        C476   1.398       .  A
C472        C473   1.404       .  A
C472        H481   1.083       .  S
C473        C474   1.407       .  A
C473        H482   1.083       .  S
C474        C475   1.409       .  A
C475        C476   1.396       .  A
C475        H483   1.083       .  S
C476        H484   1.084       .  S
C485        C486   1.407       .  A
C485        C490   1.409       .  A
C486        C487   1.406       .  A
C486        H499   1.083       .  S
C487        C488   1.404       .  A
C487        H500   1.083       .  S
C488        C489   1.398       .  A
C488        C491   1.447       .  S
C489        C490   1.397       .  A
C489        H501   1.084       .  S
C490        H502   1.083       .  S
C491        C492   1.211       .  T
C492        C493   1.447       .  S
C493        C494   1.404       .  A
C493        C498   1.398       .  A
C494        C495   1.405       .  A
C494        H503   1.083       .  S
C495        C496   1.407       .  A
C495        H504   1.083       .  S
C496        C497   1.409       .  A
C497        C498   1.398       .  A
C497        H505   1.083       .  S
C498        H506   1.084       .  S
C507        C508   1.404       .  A
C507        C512   1.406       .  A
C508        C509   1.400       .  A
C508        H521   1.083       .  S
C509        C510   1.402       .  A
C509        H522   1.083       .  S
C510        C511   1.397       .  A
C510        C513   1.435       .  S
C511        C512   1.393       .  A
C511        H523   1.084       .  S
C512        H524   1.084       .  S
C513        C514   1.204   1_554  T
C514        C515   1.435       .  S
C515        C516   1.402       .  A
C515        C520   1.397       .  A
C516        C517   1.399       .  A
C516        H525   1.083       .  S
C517        C518   1.403       .  A
C517        H526   1.083       .  S
C518        C519   1.406       .  A
C519        C520   1.394       .  A
C519        H527   1.084       .  S
C520        H528   1.084       .  S
C529        C530   1.410       .  A
C529        C534   1.407       .  A
C530        C531   1.394       .  A
C530        H543   1.083       .  S
C531        C532   1.396       .  A
C531        H544   1.084       .  S
C532        C533   1.403       .  A
C532        C535   1.442       .  S
C533        C534   1.404       .  A
C533        H545   1.083       .  S
C534        H546   1.083       .  S
C535        C536   1.207       .  T
C536        C537   1.442       .  S
C537        C538   1.398       .  A
C537        C542   1.402       .  A
C538        C539   1.397       .  A
C538        H547   1.084       .  S
C539        C540   1.409       .  A
C539        H548   1.083       .  S
C540        C541   1.407       .  A
C541        C542   1.402       .  A
C541        H549   1.083       .  S
C542        H550   1.083       .  S
C551        C552   1.409       .  A
C551        C556   1.407       .  A
C552        C553   1.394       .  A
C552        H565   1.083       .  S
C553        C554   1.397       .  A
C553        H566   1.084       .  S
C554        C555   1.402       .  A
C554        C557   1.440       .  S
C555        C556   1.403       .  A
C555        H567   1.083       .  S
C556        H568   1.083       .  S
C557        C558   1.206       .  T
C558        C559   1.440       .  S
C559        C560   1.401       .  A
C559        C564   1.398       .  A
C560        C561   1.401       .  A
C560        H569   1.083       .  S
C561        C562   1.406       .  A
C561        H570   1.083       .  S
C562        C563   1.408       .  A
C563        C564   1.397       .  A
C563        H571   1.083       .  S
C564        H572   1.084       .  S
C573        C574   1.407       .  A
C573        C578   1.410       .  A
C574        C575   1.402       .  A
C574        H587   1.083       .  S
C575        C576   1.402       .  A
C575        H588   1.083       .  S
C576        C577   1.399       .  A
C576        C579   1.446       .  S
C577        C578   1.400       .  A
C577        H589   1.083       .  S
C578        H590   1.083       .  S
C579        C580   1.210       .  T
C580        C581   1.446       .  S
C581        C582   1.400       .  A
C581        C586   1.402       .  A
C582        C583   1.400       .  A
C582        H591   1.083       .  S
C583        C584   1.408       .  A
C583        H592   1.083       .  S
C584        C585   1.408       .  A
C585        C586   1.402       .  A
C585        H593   1.083       .  S
C586        H594   1.084       .  S
C595        C596   1.408       .  A
C595        C600   1.408       .  A
C596        C597   1.397       .  A
C596        H609   1.083       .  S
C597        C598   1.398       .  A
C597        H610   1.084       .  S
C598        C599   1.403       .  A
C598        C601   1.444       .  S
C599        C600   1.403       .  A
C599        H611   1.083       .  S
C600        H612   1.083       .  S
C601        C602   1.209       .  T
C602        C603   1.445       .  S
C603        C604   1.403       .  A
C603        C608   1.398       .  A
C604        C605   1.404       .  A
C604        H613   1.083       .  S
C605        C606   1.407       .  A
C605        H614   1.083       .  S
C606        C607   1.409       .  A
C607        C608   1.397       .  A
C607        H615   1.083       .  S
C608        H616   1.084       .  S
C617        C618   1.409       .  A
C617        C622   1.407       .  A
C618        C619   1.399       .  A
C618        H631   1.083       .  S
C619        C620   1.399       .  A
C619        H632   1.084       .  S
C620        C621   1.402       .  A
C620        C623   1.444       .  S
C621        C622   1.401       .  A
C621        H633   1.083       .  S
C622        H634   1.083       .  S
C623        C624   1.209       .  T
C624        C625   1.444       .  S
C625        C626   1.402       .  A
C625        C630   1.399       .  A
C626        C627   1.402       .  A
C626        H635   1.083       .  S
C627        C628   1.407       .  A
C627        H636   1.083       .  S
C628        C629   1.410       .  A
C629        C630   1.399       .  A
C629        H637   1.083       .  S
C630        H638   1.083       .  S
C639        C640   1.409       .  A
C639        C644   1.407       .  A
C640        C641   1.396       .  A
C640        H653   1.083       .  S
C641        C642   1.397       .  A
C641        H654   1.084       .  S
C642        C643   1.402       .  A
C642        C645   1.441       .  S
C643        C644   1.402       .  A
C643        H655   1.083       .  S
C644        H656   1.083       .  S
C645        C646   1.207       .  T
C646        C647   1.441       .  S
C647        C648   1.403       .  A
C647        C652   1.397       .  A
C648        C649   1.403       .  A
C648        H657   1.083       .  S
C649        C650   1.406       .  A
C649        H658   1.083       .  S
C650        C651   1.409       .  A
C651        C652   1.395       .  A
C651        H659   1.083       .  S
C652        H660   1.084       .  S
C661        C662   1.410       .  A
C661        C666   1.407       .  A
C662        C663   1.399       .  A
C662        H675   1.083       .  S
C663        C664   1.399       .  A
C663        H676   1.084       .  S
C664        C665   1.402       .  A
C664        C667   1.443       .  S
C665        C666   1.401       .  A
C665        H677   1.083       .  S
C666        H678   1.083       .  S
C667        C668   1.208       .  T
C668        C669   1.443       .  S
C669        C670   1.399       .  A
C669        C674   1.402       .  A
C670        C671   1.398       .  A
C670        H679   1.084       .  S
C671        C672   1.409       .  A
C671        H680   1.083       .  S
C672        C673   1.407       .  A
C673        C674   1.401       .  A
C673        H681   1.083       .  S
C674        H682   1.083       .  S
C683        C684   1.409       .  A
C683        C688   1.407       .  A
C684        C685   1.396       .  A
C684        H697   1.083       .  S
C685        C686   1.397       .  A
C685        H698   1.084       .  S
C686        C687   1.400       .  A
C686        C689   1.438       .  S
C687        C688   1.399       .  A
C687        H699   1.083       .  S
C688        H700   1.083       .  S
C689        C690   1.205       .  T
C690        C691   1.438       .  S
C691        C692   1.401       .  A
C691        C696   1.397       .  A
C692        C693   1.399       .  A
C692        H701   1.083       .  S
C693        C694   1.407       .  A
C693        H702   1.083       .  S
C694        C695   1.408       .  A
C695        C696   1.396       .  A
C695        H703   1.083       .  S
C696        H704   1.084       .  S
C705        C706   1.408       .  A
C705        C710   1.407       .  A
C706        C707   1.395       .  A
C706        H719   1.083       .  S
C707        C708   1.397       .  A
C707        H720   1.084       .  S
C708        C709   1.403       .  A
C708        C711   1.442       .  S
C709        C710   1.404       .  A
C709        H721   1.083       .  S
C710        H722   1.083       .  S
C711        C712   1.207       .  T
C712        C713   1.442       .  S
C713        C714   1.398       .  A
C713        C718   1.402       .  A
C714        C715   1.397       .  A
C714        H723   1.084       .  S
C715        C716   1.408       .  A
C715        H724   1.083   1_655  S
C716        C717   1.407       .  A
C717        C718   1.402       .  A
C717        H725   1.083       .  S
C718        H726   1.083       .  S
C727        C728   1.409       .  A
C727        C732   1.407       .  A
C728        C729   1.395       .  A
C728        H741   1.083       .  S
C729        C730   1.397       .  A
C729        H742   1.084       .  S
C730        C731   1.403       .  A
C730        C733   1.442   1_455  S
C731        C732   1.403       .  A
C731        H743   1.083       .  S
C732        H744   1.083       .  S
C733        C734   1.207   1_554  T
C734        C735   1.442       .  S
C735        C736   1.397       .  A
C735        C740   1.403       .  A
C736        C737   1.396       .  A
C736        H745   1.084       .  S
C737        C738   1.409       .  A
C737        H746   1.083       .  S
C738        C739   1.406       .  A
C739        C740   1.403       .  A
C739        H747   1.083       .  S
C740        H748   1.083       .  S
C749        C750   1.404       .  A
C749        C754   1.406       .  A
C750        C751   1.400       .  A
C750        H763   1.083       .  S
C751        C752   1.402       .  A
C751        H764   1.083       .  S
C752        C753   1.397       .  A
C752        C755   1.435       .  S
C753        C754   1.394       .  A
C753        H765   1.084   1_455  S
C754        H766   1.084       .  S
C755        C756   1.203   1_455  T
C756        C757   1.435       .  S
C757        C758   1.402       .  A
C757        C762   1.396       .  A
C758        C759   1.400       .  A
C758        H767   1.083       .  S
C759        C760   1.403       .  A
C759        H768   1.083       .  S
C760        C761   1.407       .  A
C761        C762   1.392       .  A
C761        H769   1.084       .  S
C762        H770   1.084   1_655  S
C771        C772   1.409       .  A
C771        C776   1.407       .  A
C772        C773   1.397       .  A
C772        H785   1.083       .  S
C773        C774   1.398       .  A
C773        H786   1.084       .  S
C774        C775   1.401       .  A
C774        C777   1.440       .  S
C775        C776   1.400       .  A
C775        H787   1.083       .  S
C776        H788   1.083       .  S
C777        C778   1.206       .  T
C778        C779   1.440       .  S
C779        C780   1.398       .  A
C779        C784   1.401       .  A
C780        C781   1.398       .  A
C780        H789   1.083       .  S
C781        C782   1.408       .  A
C781        H790   1.083       .  S
C782        C783   1.407       .  A
C783        C784   1.399       .  A
C783        H791   1.083       .  S
C784        H792   1.084       .  S
C793        C794   1.407       .  A
C793        C798   1.409       .  A
C794        C795   1.401       .  A
C794        H807   1.083       .  S
C795        C796   1.401       .  A
C795        H808   1.083       .  S
C796        C797   1.398       .  A
C796        C799   1.441       .  S
C797        C798   1.397       .  A
C797        H809   1.084       .  S
C798        H810   1.083       .  S
C799        C800   1.207       .  T
C800        C801   1.441       .  S
C801        C802   1.401       .  A
C801        C806   1.398       .  A
C802        C803   1.400       .  A
C802        H811   1.083       .  S
C803        C804   1.407       .  A
C803        H812   1.083       .  S
C804        C805   1.409       .  A
C805        C806   1.397       .  A
C805        H813   1.083       .  S
C806        H814   1.084       .  S
C815        C816   1.407       .  A
C815        C820   1.410       .  A
C816        C817   1.405       .  A
C816        H829   1.083       .  S
C817        C818   1.404       .  A
C817        H830   1.083       .  S
C818        C819   1.398       .  A
C818        C821   1.447       .  S
C819        C820   1.398       .  A
C819        H831   1.084       .  S
C820        H832   1.083       .  S
C821        C822   1.211       .  T
C822        C823   1.447       .  S
C823        C824   1.404       .  A
C823        C828   1.398       .  A
C824        C825   1.405       .  A
C824        H833   1.083       .  S
C825        C826   1.408       .  A
C825        H834   1.083       .  S
C826        C827   1.410       .  A
C827        C828   1.397       .  A
C827        H835   1.083       .  S
C828        H836   1.084       .  S
C837        C838   1.405       .  A
C837        C842   1.407       .  A
C838        C839   1.401       .  A
C838        H851   1.083       .  S
C839        C840   1.402       .  A
C839        H852   1.083       .  S
C840        C841   1.396       .  A
C840        C843   1.436       .  S
C841        C842   1.393       .  A
C841        H853   1.084       .  S
C842        H854   1.084       .  S
C843        C844   1.204       .  T
C844        C845   1.436       .  S
C845        C846   1.402       .  A
C845        C850   1.397       .  A
C846        C847   1.400       .  A
C846        H855   1.083       .  S
C847        C848   1.404       .  A
C847        H856   1.083       .  S
C848        C849   1.407       .  A
C849        C850   1.394       .  A
C849        H857   1.084       .  S
C850        H858   1.084       .  S
C859        C860   1.409       .  A
C859        C864   1.407       .  A
C860        C861   1.397       .  A
C860        H873   1.083       .  S
C861        C862   1.398       .  A
C861        H874   1.084       .  S
C862        C863   1.403       .  A
C862        C865   1.445       .  S
C863        C864   1.405       .  A
C863        H875   1.083       .  S
C864        H876   1.083       .  S
C865        C866   1.210       .  T
C866        C867   1.446       .  S
C867        C868   1.402       .  A
C867        C872   1.399       .  A
C868        C869   1.403       .  A
C868        H877   1.083       .  S
C869        C870   1.408       .  A
C869        H878   1.083       .  S
C870        C871   1.408       .  A
C871        C872   1.398       .  A
C871        H879   1.083   1_455  S
C872        H880   1.084       .  S
C881        C882   1.409       .  A
C881        C886   1.407       .  A
C882        C883   1.398       .  A
C882        H895   1.083       .  S
C883        C884   1.398       .  A
C883        H896   1.084       .  S
C884        C885   1.401       .  A
C884        C887   1.442       .  S
C885        C886   1.400       .  A
C885        H897   1.083       .  S
C886        H898   1.083       .  S
C887        C888   1.207       .  T
C888        C889   1.442       .  S
C889        C890   1.402       .  A
C889        C894   1.398       .  A
C890        C891   1.402       .  A
C890        H899   1.083       .  S
C891        C892   1.408       .  A
C891        H900   1.083       .  S
C892        C893   1.409       .  A
C893        C894   1.397       .  A
C893        H901   1.083       .  S
C894        H902   1.084       .  S
C903        C904   1.409       .  A
C903        C908   1.407       .  A
C904        C905   1.396       .  A
C904        H917   1.083       .  S
C905        C906   1.397       .  A
C905        H918   1.084       .  S
C906        C907   1.401       .  A
C906        C909   1.439       .  S
C907        C908   1.400       .  A
C907        H919   1.083       .  S
C908        H920   1.083       .  S
C909        C910   1.206       .  T
C910        C911   1.439       .  S
C911        C912   1.398       .  A
C911        C916   1.401       .  A
C912        C913   1.397       .  A
C912        H921   1.084       .  S
C913        C914   1.409       .  A
C913        H922   1.083       .  S
C914        C915   1.406       .  A
C915        C916   1.399       .  A
C915        H923   1.083       .  S
C916        H924   1.083       .  S
C925        C926   1.407       .  A
C925        C930   1.409       .  A
C926        C927   1.402       .  A
C926        H939   1.083       .  S
C927        C928   1.402       .  A
C927        H940   1.083       .  S
C928        C929   1.398       .  A
C928        C931   1.442       .  S
C929        C930   1.397       .  A
C929        H941   1.084       .  S
C930        H942   1.083       .  S
C931        C932   1.207       .  T
C932        C933   1.442       .  S
C933        C934   1.402       .  A
C933        C938   1.397       .  A
C934        C935   1.402       .  A
C934        H943   1.083       .  S
C935        C936   1.407       .  A
C935        H944   1.083       .  S
C936        C937   1.410       .  A
C937        C938   1.396       .  A
C937        H945   1.083       .  S
C938        H946   1.084       .  S
C947        C948   1.408       .  A
C947        C952   1.404       .  A
C948        C949   1.393       .  A
C948        H961   1.084       .  S
C949        C950   1.396       .  A
C949        H962   1.084       .  S
C950        C951   1.403       .  A
C950        C953   1.438       .  S
C951        C952   1.402       .  A
C951        H963   1.083       .  S
C952        H964   1.083       .  S
C953        C954   1.205       .  T
C954        C955   1.439       .  S
C955        C956   1.396       .  A
C955        C960   1.403       .  A
C956        C957   1.393       .  A
C956        H965   1.084       .  S
C957        C958   1.408       .  A
C957        H966   1.084       .  S
C958        C959   1.405       .  A
C959        C960   1.403       .  A
C959        H967   1.083       .  S
C960        H968   1.083       .  S
C969        C970   1.408       .  A
C969        C974   1.408       .  A
C970        C971   1.396       .  A
C970        H983   1.083       .  S
C971        C972   1.398       .  A
C971        H984   1.084       .  S
C972        C973   1.402       .  A
C972        C975   1.442       .  S
C973        C974   1.402       .  A
C973        H985   1.083       .  S
C974        H986   1.083       .  S
C975        C976   1.207       .  T
C976        C977   1.442       .  S
C977        C978   1.398       .  A
C977        C982   1.402       .  A
C978        C979   1.396       .  A
C978        H987   1.084       .  S
C979        C980   1.408       .  A
C979        H988   1.083       .  S
C980        C981   1.407       .  A
C981        C982   1.403       .  A
C981        H989   1.083       .  S
C982        H990   1.083       .  S
C991        C992   1.407       .  A
C991        C996   1.409       .  A
C992        C993   1.402       .  A
C992       H1005   1.083       .  S
C993        C994   1.402       .  A
C993       H1006   1.083       .  S
C994        C995   1.398       .  A
C994        C997   1.443       .  S
C995        C996   1.397       .  A
C995       H1007   1.084       .  S
C996       H1008   1.083       .  S
C997        C998   1.208       .  T
C998        C999   1.442       .  S
C999       C1000   1.401       .  A
C999       C1004   1.399       .  A
C1000      C1001   1.400       .  A
C1000      H1009   1.083       .  S
C1001      C1002   1.407       .  A
C1001      H1010   1.083       .  S
C1002      C1003   1.409       .  A
C1003      C1004   1.398       .  A
C1003      H1011   1.083       .  S
C1004      H1012   1.084       .  S
C1013      C1014   1.409       .  A
C1013      C1018   1.407       .  A
C1014      C1015   1.395       .  A
C1014      H1027   1.083       .  S
C1015      C1016   1.397       .  A
C1015      H1028   1.084       .  S
C1016      C1017   1.402       .  A
C1016      C1019   1.441       .  S
C1017      C1018   1.403       .  A
C1017      H1029   1.083       .  S
C1018      H1030   1.083       .  S
C1019      C1020   1.207       .  T
C1020      C1021   1.441       .  S
C1021      C1022   1.398       .  A
C1021      C1026   1.401       .  A
C1022      C1023   1.397       .  A
C1022      H1031   1.084       .  S
C1023      C1024   1.409       .  A
C1023      H1032   1.083       .  S
C1024      C1025   1.406       .  A
C1025      C1026   1.401       .  A
C1025      H1033   1.083       .  S
C1026      H1034   1.083       .  S
C1035      C1036   1.409       .  A
C1035      C1040   1.407       .  A
C1036      C1037   1.399       .  A
C1036      H1049   1.083       .  S
C1037      C1038   1.399       .  A
C1037      H1050   1.083       .  S
C1038      C1039   1.401       .  A
C1038      C1041   1.443       .  S
C1039      C1040   1.401       .  A
C1039      H1051   1.083       .  S
C1040      H1052   1.083       .  S
C1041      C1042   1.208       .  T
C1042      C1043   1.443       .  S
C1043      C1044   1.399       .  A
C1043      C1048   1.401       .  A
C1044      C1045   1.398       .  A
C1044      H1053   1.084       .  S
C1045      C1046   1.409       .  A
C1045      H1054   1.083   1_545  S
C1046      C1047   1.407       .  A
C1047      C1048   1.401       .  A
C1047      H1055   1.083       .  S
C1048      H1056   1.083       .  S
C1057      C1058   1.407       .  A
C1057      C1062   1.407       .  A
C1058      C1059   1.401       .  A
C1058      H1071   1.083       .  S
C1059      C1060   1.401       .  A
C1059      H1072   1.083       .  S
C1060      C1061   1.397       .  A
C1060      C1063   1.438       .  S
C1061      C1062   1.395       .  A
C1061      H1073   1.084       .  S
C1062      H1074   1.083       .  S
C1063      C1064   1.205       .  T
C1064      C1065   1.438       .  S
C1065      C1066   1.402       .  A
C1065      C1070   1.397       .  A
C1066      C1067   1.401       .  A
C1066      H1075   1.083       .  S
C1067      C1068   1.406       .  A
C1067      H1076   1.083       .  S
C1068      C1069   1.408       .  A
C1069      C1070   1.394       .  A
C1069      H1077   1.083       .  S
C1070      H1078   1.084       .  S
C1079      C1080   1.409       .  A
C1079      C1084   1.407       .  A
C1080      C1081   1.395       .  A
C1080      H1093   1.083       .  S
C1081      C1082   1.397       .  A
C1081      H1094   1.084       .  S
C1082      C1083   1.402       .  A
C1082      C1085   1.441       .  S
C1083      C1084   1.402       .  A
C1083      H1095   1.083       .  S
C1084      H1096   1.083       .  S
C1085      C1086   1.207       .  T
C1086      C1087   1.441       .  S
C1087      C1088   1.397       .  A
C1087      C1092   1.402       .  A
C1088      C1089   1.395       .  A
C1088      H1097   1.084       .  S
C1089      C1090   1.409       .  A
C1089      H1098   1.083       .  S
C1090      C1091   1.407       .  A
C1091      C1092   1.403       .  A
C1091      H1099   1.083       .  S
C1092      H1100   1.083       .  S
C1101      C1102   1.405       .  A
C1101      C1106   1.408       .  A
C1102      C1103   1.403       .  A
C1102      H1115   1.083       .  S
C1103      C1104   1.404       .  A
C1103      H1116   1.083       .  S
C1104      C1105   1.396       .  A
C1104      C1107   1.440       .  S
C1105      C1106   1.394       .  A
C1105      H1117   1.084       .  S
C1106      H1118   1.084       .  S
C1107      C1108   1.206       .  T
C1108      C1109   1.440       .  S
C1109      C1110   1.404       .  A
C1109      C1114   1.396       .  A
C1110      C1111   1.403       .  A
C1110      H1119   1.083       .  S
C1111      C1112   1.405       .  A
C1111      H1120   1.083       .  S
C1112      C1113   1.408       .  A
C1113      C1114   1.394       .  A
C1113      H1121   1.084       .  S
C1114      H1122   1.084       .  S
C1123      C1124   1.409       .  A
C1123      C1128   1.407       .  A
C1124      C1125   1.395       .  A
C1124      H1137   1.083   1_455  S
C1125      C1126   1.397       .  A
C1125      H1138   1.084       .  S
C1126      C1127   1.403       .  A
C1126      C1129   1.441       .  S
C1127      C1128   1.403       .  A
C1127      H1139   1.083       .  S
C1128      H1140   1.083       .  S
C1129      C1130   1.207       .  T
C1130      C1131   1.441       .  S
C1131      C1132   1.398       .  A
C1131      C1136   1.402       .  A
C1132      C1133   1.396       .  A
C1132      H1141   1.084       .  S
C1133      C1134   1.409       .  A
C1133      H1142   1.083       .  S
C1134      C1135   1.406       .  A
C1135      C1136   1.402       .  A
C1135      H1143   1.083       .  S
C1136      H1144   1.083       .  S
C1145      C1146   1.409       .  A
C1145      C1150   1.408       .  A
C1146      C1147   1.397       .  A
C1146      H1159   1.083       .  S
C1147      C1148   1.398       .  A
C1147      H1160   1.084       .  S
C1148      C1149   1.404       .  A
C1148      C1151   1.447       .  S
C1149      C1150   1.406       .  A
C1149      H1161   1.083       .  S
C1150      H1162   1.083       .  S
C1151      C1152   1.211       .  T
C1152      C1153   1.447       .  S
C1153      C1154   1.398       .  A
C1153      C1158   1.403       .  A
C1154      C1155   1.399       .  A
C1154      H1163   1.084       .  S
C1155      C1156   1.410       .  A
C1155      H1164   1.083       .  S
C1156      C1157   1.407       .  A
C1157      C1158   1.404       .  A
C1157      H1165   1.083       .  S
C1158      H1166   1.083       .  S
C1167      C1168   1.408       .  A
C1167      C1172   1.409       .  A
C1168      C1169   1.402       .  A
C1168      H1181   1.083       .  S
C1169      C1170   1.402       .  A
C1169      H1182   1.083       .  S
C1170      C1171   1.399       .  A
C1170      C1173   1.444       .  S
C1171      C1172   1.398       .  A
C1171      H1183   1.084       .  S
C1172      H1184   1.083       .  S
C1173      C1174   1.208       .  T
C1174      C1175   1.444       .  S
C1175      C1176   1.401       .  A
C1175      C1180   1.399       .  A
C1176      C1177   1.401       .  A
C1176      H1185   1.083       .  S
C1177      C1178   1.407       .  A
C1177      H1186   1.083       .  S
C1178      C1179   1.409       .  A
C1179      C1180   1.399       .  A
C1179      H1187   1.083       .  S
C1180      H1188   1.083       .  S
C1189      C1190   1.407       .  A
C1189      C1194   1.410       .  A
C1190      C1191   1.405       .  A
C1190      H1203   1.083       .  S
C1191      C1192   1.404       .  A
C1191      H1204   1.083       .  S
C1192      C1193   1.399   1_545  A
C1192      C1195   1.448   1_545  S
C1193      C1194   1.399   1_565  A
C1193      H1205   1.084       .  S
C1194      H1206   1.083   1_545  S
C1195      C1196   1.211   1_456  T
C1196      C1197   1.448       .  S
C1197      C1198   1.404       .  A
C1197      C1202   1.398       .  A
C1198      C1199   1.406       .  A
C1198      H1207   1.083       .  S
C1199      C1200   1.407       .  A
C1199      H1208   1.083       .  S
C1200      C1201   1.410       .  A
C1201      C1202   1.397       .  A
C1201      H1209   1.083       .  S
C1202      H1210   1.084   1_565  S
C1211      C1212   1.406       .  A
C1211      C1216   1.404       .  A
C1212      C1213   1.393       .  A
C1212      H1225   1.084       .  S
C1213      C1214   1.397       .  A
C1213      H1226   1.084   1_455  S
C1214      C1215   1.402       .  A
C1214      C1217   1.436       .  S
C1215      C1216   1.401       .  A
C1215      H1227   1.083   1_545  S
C1216      H1228   1.083       .  S
C1217      C1218   1.204   1_445  T
C1218      C1219   1.436       .  S
C1219      C1220   1.396       .  A
C1219      C1224   1.403       .  A
C1220      C1221   1.393       .  A
C1220      H1229   1.084   1_655  S
C1221      C1222   1.407       .  A
C1221      H1230   1.084       .  S
C1222      C1223   1.404       .  A
C1223      C1224   1.402       .  A
C1223      H1231   1.083       .  S
C1224      H1232   1.083   1_565  S
C1233      C1234   1.406       .  A
C1233      C1238   1.407       .  A
C1234      C1235   1.402       .  A
C1234      H1247   1.083       .  S
C1235      C1236   1.402       .  A
C1235      H1248   1.083       .  S
C1236      C1237   1.397       .  A
C1236      C1239   1.440       .  S
C1237      C1238   1.395       .  A
C1237      H1249   1.084       .  S
C1238      H1250   1.083       .  S
C1239      C1240   1.206       .  T
C1240      C1241   1.440       .  S
C1241      C1242   1.402       .  A
C1241      C1246   1.398       .  A
C1242      C1243   1.401       .  A
C1242      H1251   1.083       .  S
C1243      C1244   1.407       .  A
C1243      H1252   1.083       .  S
C1244      C1245   1.408       .  A
C1245      C1246   1.396       .  A
C1245      H1253   1.083   1_655  S
C1246      H1254   1.084       .  S
C1255      C1256   1.408       .  A
C1255      C1260   1.408       .  A
C1256      C1257   1.400       .  A
C1256      H1269   1.083       .  S
C1257      C1258   1.400       .  A
C1257      H1270   1.084       .  S
C1258      C1259   1.400       .  A
C1258      C1261   1.443       .  S
C1259      C1260   1.400       .  A
C1259      H1271   1.083       .  S
C1260      H1272   1.083       .  S
C1261      C1262   1.208       .  T
C1262      C1263   1.443       .  S
C1263      C1264   1.398       .  A
C1263      C1268   1.402       .  A
C1264      C1265   1.397       .  A
C1264      H1273   1.084       .  S
C1265      C1266   1.410       .  A
C1265      H1274   1.083       .  S
C1266      C1267   1.407       .  A
C1267      C1268   1.402       .  A
C1267      H1275   1.083       .  S
C1268      H1276   1.083       .  S
C1277      C1278   1.408       .  A
C1277      C1282   1.406       .  A
C1278      C1279   1.395       .  A
C1278      H1291   1.083       .  S
C1279      C1280   1.397       .  A
C1279      H1292   1.084       .  S
C1280      C1281   1.402       .  A
C1280      C1283   1.439       .  S
C1281      C1282   1.401       .  A
C1281      H1293   1.083       .  S
C1282      H1294   1.083       .  S
C1283      C1284   1.206       .  T
C1284      C1285   1.439       .  S
C1285      C1286   1.402       .  A
C1285      C1290   1.396       .  A
C1286      C1287   1.403       .  A
C1286      H1295   1.083       .  S
C1287      C1288   1.407       .  A
C1287      H1296   1.083       .  S
C1288      C1289   1.408       .  A
C1289      C1290   1.394       .  A
C1289      H1297   1.083       .  S
C1290      H1298   1.084       .  S
C1299      C1300   1.407       .  A
C1299      C1304   1.409       .  A
C1300      C1301   1.404       .  A
C1300      H1313   1.083       .  S
C1301      C1302   1.403       .  A
C1301      H1314   1.083       .  S
C1302      C1303   1.397       .  A
C1302      C1305   1.444       .  S
C1303      C1304   1.396       .  A
C1303      H1315   1.084   1_565  S
C1304      H1316   1.083       .  S
C1305      C1306   1.209       .  T
C1306      C1307   1.444   1_565  S
C1307      C1308   1.404       .  A
C1307      C1312   1.397   1_545  A
C1308      C1309   1.404       .  A
C1308      H1317   1.083       .  S
C1309      C1310   1.407       .  A
C1309      H1318   1.083       .  S
C1310      C1311   1.409       .  A
C1311      C1312   1.396   1_545  A
C1311      H1319   1.083   1_545  S
C1312      H1320   1.084       .  S
C1321      C1322   1.406       .  A
C1321      C1326   1.404       .  A
C1322      C1323   1.393       .  A
C1322      H1335   1.084       .  S
C1323      C1324   1.397       .  A
C1323      H1336   1.084       .  S
C1324      C1325   1.403       .  A
C1324      C1327   1.437   1_545  S
C1325      C1326   1.401       .  A
C1325      H1337   1.083   1_545  S
C1326      H1338   1.083       .  S
C1327      C1328   1.205   1_556  T
C1328      C1329   1.438       .  S
C1329      C1330   1.398       .  A
C1329      C1334   1.402       .  A
C1330      C1331   1.395       .  A
C1330      H1339   1.084       .  S
C1331      C1332   1.405       .  A
C1331      H1340   1.084       .  S
C1332      C1333   1.404       .  A
C1333      C1334   1.400       .  A
C1333      H1341   1.084       .  S
C1334      H1342   1.083   1_565  S
C1343      C1344   1.408       .  A
C1343      C1348   1.407       .  A
C1344      C1345   1.397       .  A
C1344      H1357   1.083       .  S
C1345      C1346   1.398       .  A
C1345      H1358   1.084       .  S
C1346      C1347   1.401       .  A
C1346      C1349   1.440       .  S
C1347      C1348   1.400       .  A
C1347      H1359   1.083       .  S
C1348      H1360   1.083       .  S
C1349      C1350   1.206       .  T
C1350      C1351   1.440       .  S
C1351      C1352   1.401       .  A
C1351      C1356   1.398       .  A
C1352      C1353   1.400       .  A
C1352      H1361   1.083       .  S
C1353      C1354   1.407       .  A
C1353      H1362   1.083       .  S
C1354      C1355   1.408       .  A
C1355      C1356   1.397       .  A
C1355      H1363   1.083   1_545  S
C1356      H1364   1.084       .  S
C1365      C1366   1.407       .  A
C1365      C1370   1.409       .  A
C1366      C1367   1.401       .  A
C1366      H1379   1.083       .  S
C1367      C1368   1.402       .  A
C1367      H1380   1.083       .  S
C1368      C1369   1.399       .  A
C1368      C1371   1.444       .  S
C1369      C1370   1.398       .  A
C1369      H1381   1.084       .  S
C1370      H1382   1.083       .  S
C1371      C1372   1.209       .  T
C1372      C1373   1.444       .  S
C1373      C1374   1.401       .  A
C1373      C1378   1.399       .  A
C1374      C1375   1.401       .  A
C1374      H1383   1.083       .  S
C1375      C1376   1.408       .  A
C1375      H1384   1.083       .  S
C1376      C1377   1.409       .  A
C1377      C1378   1.399       .  A
C1377      H1385   1.083       .  S
C1378      H1386   1.083       .  S
C1387      C1388   1.407       .  A
C1387      C1392   1.409       .  A
C1388      C1389   1.403       .  A
C1388      H1401   1.083       .  S
C1389      C1390   1.402       .  A
C1389      H1402   1.083       .  S
C1390      C1391   1.397       .  A
C1390      C1393   1.442       .  S
C1391      C1392   1.395       .  A
C1391      H1403   1.084       .  S
C1392      H1404   1.083       .  S
C1393      C1394   1.207       .  T
C1394      C1395   1.442       .  S
C1395      C1396   1.401       .  A
C1395      C1400   1.398       .  A
C1396      C1397   1.401       .  A
C1396      H1405   1.083       .  S
C1397      C1398   1.408       .  A
C1397      H1406   1.083       .  S
C1398      C1399   1.408       .  A
C1399      C1400   1.397       .  A
C1399      H1407   1.083       .  S
C1400      H1408   1.084       .  S
