geometry optimzed in LAMMPS
_audit_creation_date              2020-12-01 
_audit_creation_method            'lammps2cif' 
_symmetry_space_group_name_H-M    'P1' 
_symmetry_Int_Tables_number       1 
_symmetry_cell_setting            triclinic 
loop_ 
_symmetry_equiv_pos_as_xyz 
  x,y,z 
_cell_length_a                    47.27162432 
_cell_length_b                    46.64896301910318 
_cell_length_c                    42.321889767597504 
_cell_angle_alpha                 90.80178425981514 
_cell_angle_beta                  89.9438367405764 
_cell_angle_gamma                 90.37561426559014 
loop_ 
_atom_site_label 
_atom_site_type_symbol 
_atom_site_fract_x 
_atom_site_fract_y 
_atom_site_fract_z 
_atom_site_charge 
O1          O  0.06618342  0.46010491  0.51316404    -0.82900
C2          C  0.16205576  0.48226219  0.58948974     0.96400
O3          O  0.15305193  0.48843546  0.56225572    -0.72100
O4          O  0.12352379  0.48066183  0.50933335    -0.75600
Al5        Al  0.11364652  0.49183735  0.55106964     1.49000
C6          C  0.12580289  0.45730725  0.49391770     0.91700
O7          O  0.10798534  0.39709063  0.55406496    -0.81900
O8          O  0.08312672  0.41936559  0.60630692    -0.75400
Al9        Al  0.08891901  0.43157134  0.53635441     1.90100
O10         O  0.13800362  0.41623221  0.58784241    -0.74500
O11         O  0.08972120  0.47285530  0.61882888    -0.74300
O12         O  0.14622891  0.46896093  0.60816110    -0.80000
O13         O  0.10110958  0.01152060  0.59668402    -0.78200
O14         O  0.10564108  0.45634089  0.56274400    -1.14300
O15         O  0.07205222  0.00274258  0.54266948    -0.73500
C16         C  0.06105956  0.48667869  0.51751835     0.97200
C17         C  0.12828400  0.39429962  0.57379968     0.93600
Al18       Al  0.11363156  0.44542720  0.60185839     1.55600
O19         O  0.11792447  0.43380591  0.50558810    -0.78200
C20         C  0.09245543  0.49941493  0.61544496     0.97700
C21         C  0.06017064  0.41828762  0.59152314     0.92600
O22         O  0.05797860  0.42772244  0.56392150    -0.83500
O23         O  0.46210069  0.31318549  0.51438825    -0.82900
C24         C  0.36615725  0.28620426  0.58711653     0.96400
O25         O  0.37708559  0.27813304  0.56114046    -0.72100
O26         O  0.40761272  0.28837649  0.50803564    -0.75600
Al27       Al  0.41703390  0.27857110  0.55099389     1.49000
C28         C  0.40502401  0.31187041  0.49348196     0.91700
O29         O  0.41825505  0.37445046  0.55434824    -0.81900
O30         O  0.44169284  0.35348528  0.60775398    -0.75400
Al31       Al  0.43796259  0.34012883  0.53759197     1.90100
O32         O  0.38722305  0.35614978  0.58673921    -0.74500
O33         O  0.43467692  0.30102296  0.62072615    -0.74300
O34         O  0.37938213  0.30319337  0.60515336    -0.80000
O35         O  0.42619265  0.26243358  0.59180977    -0.78200
O36         O  0.42180198  0.31513272  0.56323234    -1.14300
O37         O  0.45637192  0.27288216  0.53885800    -0.73500
C38         C  0.46972037  0.28753312  0.51864503     0.97200
C39         C  0.39738620  0.37771947  0.57305294     0.93600
Al40       Al  0.41149373  0.32718191  0.60168513     1.55600
O41         O  0.40932359  0.33563018  0.50745012    -0.78200
C42         C  0.43518783  0.27438037  0.61698224     0.97700
C43         C  0.46506990  0.35454743  0.59368597     0.92600
O44         O  0.46805235  0.34542786  0.56573942    -0.83500
O45         O  0.22136277  0.17781176  0.63499136    -0.82900
C46         C  0.16835965  0.28409473  0.62001486     0.96400
O47         O  0.18613174  0.27185484  0.60257422    -0.72100
O48         O  0.23726025  0.26087162  0.62435331    -0.75600
Al49       Al  0.20836230  0.23847869  0.60486859     1.49000
C50         C  0.25800036  0.24806937  0.63617986     0.91700
O51         O  0.21664244  0.23416003  0.69884013    -0.81900
O52         O  0.15194451  0.19160505  0.66451790    -0.75400
Al53       Al  0.21899528  0.20666466  0.66611129     1.90100
O54         O  0.17015367  0.24021985  0.69654763    -0.74500
O55         O  0.14398659  0.22229027  0.61214011    -0.74300
O56         O  0.15976682  0.27206034  0.64490555    -0.80000
O57         O  0.18203336  0.21770196  0.58246035    -0.78200
O58         O  0.19529725  0.22586131  0.64175386    -1.14300
O59         O  0.23274228  0.20682232  0.59651150    -0.73500
C60         C  0.22983341  0.18185840  0.60703730     0.97200
C61         C  0.19336247  0.24084156  0.71182726     0.93600
Al62       Al  0.15955185  0.23127897  0.65352501     1.55600
O63         O  0.25388996  0.22500430  0.65109152    -0.78200
C64         C  0.15585982  0.21526393  0.58626809     0.97700
C65         C  0.16587927  0.17700285  0.68401391     0.92600
O66         O  0.19167043  0.18298859  0.68786485    -0.83500
O67         O  0.29817561  0.09497237  0.63371459    -0.82900
C68         C  0.36282930  0.49283000  0.61567225     0.96400
O69         O  0.35018016  0.00792614  0.59966631    -0.72100
O70         O  0.29640391  0.01091429  0.61729163    -0.75600
Al71       Al  0.32306172  0.03803754  0.60238690     1.49000
C72         C  0.27399841  0.01955731  0.63047195     0.91700
O73         O  0.30964120  0.04071802  0.69698517    -0.81900
O74         O  0.37173045  0.08744992  0.66571779    -0.75400
Al75       Al  0.30529306  0.06678562  0.66443283     1.90100
O76         O  0.35620964  0.03961907  0.69772296    -0.74500
O77         O  0.38465570  0.05527584  0.61478690    -0.74300
O78         O  0.36843116  0.00639539  0.64683905    -0.80000
O79         O  0.34766903  0.06437754  0.58497937    -0.78200
O80         O  0.33194224  0.05056464  0.64103320    -1.14300
O81         O  0.29389993  0.06470607  0.59390550    -0.73500
C82         C  0.28883748  0.08856473  0.60658344     0.97200
C83         C  0.33251106  0.03674436  0.71137022     0.93600
Al84       Al  0.36729458  0.04732591  0.65511800     1.55600
O85         O  0.27462989  0.04195424  0.64815458    -0.78200
C86         C  0.37388084  0.06465719  0.58955710     0.97700
C87         C  0.35605503  0.10181345  0.68427405     0.92600
O88         O  0.33012437  0.09470607  0.68647794    -0.83500
O89         O  0.30839249  0.43773820  0.89182571    -0.82900
C90         C  0.40816276  0.49828132  0.86270845     0.96400
O91         O  0.39214443  0.48515575  0.84341874    -0.72100
O92         O  0.38699577  0.43144804  0.86107908    -0.75600
Al93       Al  0.36050929  0.45977362  0.85007771     1.49000
C94         C  0.37977030  0.40976054  0.87663457     0.91700
O95         O  0.37110247  0.45104723  0.94447015    -0.81900
O96         O  0.32003277  0.00924715  0.91580748    -0.75400
Al97       Al  0.34049757  0.44530080  0.91669890     1.90100
O98         O  0.37008021  0.49790290  0.94406835    -0.74500
O99         O  0.35066129  0.01923964  0.86324072    -0.74300
O100        O  0.39923314  0.50483517  0.89010871    -0.80000
O101        O  0.33429767  0.48575754  0.83562079    -0.78200
O102        O  0.35380299  0.47058142  0.88969482    -1.14300
O103        O  0.33085367  0.43207965  0.84680976    -0.73500
C104        C  0.30936276  0.42846658  0.86381572     0.97200
C105        C  0.37414438  0.47484852  0.95862102     0.93600
Al106      Al  0.35989865  0.50687060  0.90167311     1.55600
O107        O  0.36098097  0.41218565  0.89817918    -0.78200
C108        C  0.33734191  0.51238974  0.83795177     0.97700
C109        C  0.30895299  0.49825552  0.93633490     0.92600
O110        O  0.31678810  0.47252113  0.94066627    -0.83500
O111        O  0.21656697  0.35358017  0.89060177    -0.82900
C112        C  0.11778744  0.28897893  0.86697771     0.96400
O113        O  0.13325580  0.30189595  0.84748190    -0.72100
O114        O  0.13679575  0.35554853  0.86537969    -0.75600
Al115      Al  0.16390321  0.32847981  0.85260606     1.49000
C116        C  0.14406584  0.37821313  0.87969279     0.91700
O117        O  0.15867328  0.33970894  0.94922275    -0.81900
O118        O  0.20680944  0.27824839  0.91575218    -0.75400
Al119      Al  0.18662838  0.34561971  0.91796589     1.90100
O120        O  0.15916308  0.29281887  0.94726548    -0.74500
O121        O  0.17602989  0.26570714  0.86341262    -0.74300
O122        O  0.12734227  0.28398452  0.89443849    -0.80000
O123        O  0.19064292  0.30293577  0.83665520    -0.78200
O124        O  0.17252872  0.31913893  0.89198497    -1.14300
O125        O  0.19188914  0.35754692  0.84718040    -0.73500
C126        C  0.21400777  0.36218639  0.86278125     0.97200
C127        C  0.15669951  0.31588286  0.96296065     0.93600
Al128      Al  0.16753680  0.28312183  0.90423865     1.55600
O129        O  0.16362448  0.37734728  0.90056765    -0.78200
C130        C  0.18798883  0.27633078  0.83939594     0.97700
C131        C  0.22058082  0.29402563  0.93516297     0.92600
O132        O  0.21287594  0.31986947  0.93967557    -0.83500
O133        O  0.08338379  0.08908442  0.76729238    -0.82900
C134        C  0.10866680  0.49093258  0.83631377     0.96400
O135        O  0.11440226  0.00343782  0.81594120    -0.72100
O136        O  0.10533176  0.03280433  0.76208796    -0.75600
Al137      Al  0.11633662  0.04351990  0.80455537     1.49000
C138        C  0.08159244  0.03013772  0.74826310     0.91700
O139        O  0.02296157  0.04751249  0.80877295    -0.81900
O140        O  0.04413143  0.07267023  0.86107089    -0.75400
Al141      Al  0.05638222  0.06642587  0.79133645     1.90100
O142        O  0.04107879  0.01688415  0.84186415    -0.74500
O143        O  0.09666089  0.06658589  0.87348230    -0.74300
O144        O  0.09350602  0.00943046  0.86153372    -0.80000
O145        O  0.13355120  0.05394323  0.84502641    -0.78200
O146        O  0.08105270  0.05044508  0.81710985    -1.14300
O147        O  0.12370705  0.08235306  0.79084170    -0.73500
C148        C  0.10928887  0.09548126  0.77038711     0.97200
C149        C  0.01994131  0.02667603  0.82748784     0.93600
Al150      Al  0.06998064  0.04201519  0.85610201     1.55600
O151        O  0.05876019  0.03620474  0.76207965    -0.78200
C152        C  0.12295346  0.06524544  0.86979442     0.97700
C153        C  0.04238352  0.09570933  0.84621505     0.92600
O154        O  0.05234862  0.09822227  0.81875257    -0.83500
O155        O  0.43791406  0.19558701  0.76489789    -0.82900
C156        C  0.41562432  0.29400827  0.83936008     0.96400
O157        O  0.40948507  0.28418586  0.81207400    -0.72100
O158        O  0.41898860  0.25277895  0.75889689    -0.75600
Al159      Al  0.40599191  0.24389464  0.80056743     1.49000
C160        C  0.44308110  0.25344159  0.74561771     0.91700
O161        O  0.49918363  0.23581026  0.80924055    -0.81900
O162        O  0.47419009  0.21216519  0.86032414    -0.75400
Al163      Al  0.46528767  0.21788802  0.78997690     1.90100
O164        O  0.48146064  0.26750064  0.84231452    -0.74500
O165        O  0.42194080  0.22161116  0.86974960    -0.74300
O166        O  0.42864439  0.27837626  0.85835997    -0.80000
O167        O  0.38670261  0.23536688  0.83984952    -0.78200
O168        O  0.44050454  0.23565197  0.81466242    -1.14300
O169        O  0.39717187  0.20488034  0.78660516    -0.73500
C170        C  0.41165883  0.19024214  0.76701841     0.97200
C171        C  0.00245413  0.25636903  0.83015651     0.93600
Al172      Al  0.45041998  0.24426941  0.85421313     1.55600
O173        O  0.46528689  0.24744603  0.76049757    -0.78200
C174        C  0.39598043  0.22355323  0.86451851     0.97700
C175        C  0.47539208  0.18882594  0.84521728     0.92600
O176        O  0.46669437  0.18657440  0.81720543    -0.83500
O177        O  0.31385938  0.21523042  0.01325842    -0.82900
C178        C  0.41223121  0.24078228  0.08318224     0.96400
O179        O  0.40174422  0.24699230  0.05664666    -0.72100
O180        O  0.36966558  0.23657183  0.00502630    -0.75600
Al181      Al  0.36174788  0.24897046  0.04733329     1.49000
C182        C  0.37044968  0.21241562  0.99089055     0.91700
O183        O  0.35545048  0.15385733  0.05377533    -0.81900
O184        O  0.33339836  0.17783060  0.10690987    -0.75400
Al185      Al  0.33687678  0.18802499  0.03639995     1.90100
O186        O  0.38798122  0.17286013  0.08437849    -0.74500
O187        O  0.34275296  0.23112637  0.11751379    -0.74300
O188        O  0.39789224  0.22608435  0.10216859    -0.80000
O189        O  0.35428886  0.26768838  0.08767964    -0.78200
O190        O  0.35469462  0.21349576  0.06079175    -1.14300
O191        O  0.32284813  0.25674663  0.03541052    -0.73500
C192        C  0.30817969  0.24162176  0.01630757     0.97200
C193        C  0.37722585  0.15106698  0.07111256     0.93600
Al194      Al  0.36478930  0.20300569  0.09936077     1.55600
O195        O  0.36502904  0.18943895  0.00517063    -0.78200
C196        C  0.34434338  0.25760271  0.11305341     0.97700
C197        C  0.30964038  0.17738930  0.09349440     0.92600
O198        O  0.30702629  0.18549827  0.06535858    -0.83500
O199        O  0.05951139  0.35204769  0.13974482    -0.82900
C200        C  0.10673443  0.24258188  0.11968352     0.96400
O201        O  0.09546170  0.25891039  0.09998616    -0.72100
O202        O  0.04340351  0.27158372  0.11579601    -0.75600
Al203      Al  0.07481653  0.29375778  0.10352841     1.49000
C204        C  0.02250875  0.28260167  0.12979936     0.91700
O205        O  0.06082467  0.29265238  0.19896924    -0.81900
O206        O  0.12974132  0.33128358  0.16845725    -0.75400
Al207      Al  0.06099720  0.32119474  0.16780270     1.90100
O208        O  0.10681702  0.28604011  0.19958176    -0.74500
O209        O  0.13837429  0.29765672  0.11644761    -0.74300
O210        O  0.11252603  0.25211597  0.14720893    -0.80000
O211        O  0.10441116  0.31568656  0.08768385    -0.78200
O212        O  0.08488651  0.30220511  0.14304118    -1.14300
O213        O  0.05183983  0.32618445  0.09701538    -0.73500
C214        C  0.05075882  0.34966289  0.11178798     0.97200
C215        C  0.08313093  0.28652368  0.21368534     0.93600
Al216      Al  0.11901678  0.29238454  0.15683549     1.55600
O217        O  0.02634814  0.30320794  0.14955187    -0.78200
C218        C  0.13005299  0.31014158  0.09170821     0.97700
C219        C  0.11632798  0.34746098  0.18754091     0.92600
O220        O  0.08985925  0.34343819  0.19096104    -0.83500
O221        O  0.21306309  0.07179404  0.01905946    -0.82900
C222        C  0.11800189  0.04038818  0.09006919     0.96400
O223        O  0.12713612  0.03662225  0.06211711    -0.72100
O224        O  0.15822306  0.04685983  0.00935171    -0.75600
Al225      Al  0.16694182  0.03492854  0.05163915     1.49000
C226        C  0.15502592  0.07115426  0.99693806     0.91700
O227        O  0.16468115  0.12799103  0.06252270    -0.81900
O228        O  0.19330142  0.10670932  0.11448891    -0.75400
Al229      Al  0.18752608  0.09729355  0.04317732     1.90100
O230        O  0.13810640  0.10598809  0.09740976    -0.74500
O231        O  0.19149396  0.05135466  0.12001767    -0.74300
O232        O  0.13411376  0.05149278  0.11068325    -0.80000
O233        O  0.17558276  0.01544514  0.09083817    -0.78200
O234        O  0.17304993  0.07015672  0.06701398    -1.14300
O235        O  0.20560867  0.02948051  0.03941679    -0.73500
C236        C  0.21986554  0.04548800  0.02136380     0.97200
C237        C  0.14476824  0.12845111  0.08294175     0.93600
Al238      Al  0.16501401  0.07794425  0.10723089     1.55600
O239        O  0.15912848  0.09376202  0.01271343    -0.78200
C240        C  0.18818778  0.02490752  0.11534347     0.97700
C241        C  0.21494769  0.11301087  0.09881447     0.92600
O242        O  0.21800106  0.10414970  0.07085341    -0.83500
O243        O  0.46521851  0.43302436  0.13569324    -0.82900
C244        C  0.41605274  0.04233324  0.11975821     0.96400
O245        O  0.43068616  0.02765489  0.10071087    -0.72100
O246        O  0.48330343  0.01827054  0.11798513    -0.75600
Al247      Al  0.44979235  0.49254377  0.10365064     1.49000
C248        C  0.00465616  0.00965104  0.13225456     0.91700
O249        O  0.46221967  0.49137638  0.19736572    -0.81900
O250        O  0.39544767  0.44874825  0.16541490    -0.75400
Al251      Al  0.46317486  0.46309008  0.16565430     1.90100
O252        O  0.41823739  0.00059536  0.19874645    -0.74500
O253        O  0.38574690  0.48321525  0.11492714    -0.74300
O254        O  0.40949527  0.03246380  0.14660947    -0.80000
O255        O  0.42166856  0.47061191  0.08491731    -0.78200
O256        O  0.43883803  0.48181341  0.14191218    -1.14300
O257        O  0.47376186  0.46089953  0.09532950    -0.73500
C258        C  0.47503926  0.43691102  0.10840301     0.97200
C259        C  0.44183025  0.00222605  0.21282177     0.93600
Al260      Al  0.40378909  0.48867692  0.15572806     1.60400
O261        O  0.99981114  0.48320586  0.14951475    -0.78200
C262        C  0.39574866  0.47460297  0.08873222     0.97700
C263        C  0.40968127  0.43388250  0.18453422     0.92600
O264        O  0.43564672  0.43988581  0.18830681    -0.83500
O265        O  0.47143993  0.10298272  0.39468440    -0.82900
C266        C  0.37181642  0.03951139  0.36685367     0.96400
O267        O  0.38689236  0.05430359  0.34863997    -0.72100
O268        O  0.39118454  0.10762781  0.36848746    -0.75600
Al269      Al  0.41785936  0.08009860  0.35525151     1.49000
C270        C  0.39899687  0.12980381  0.38353699     0.91700
O271        O  0.41076577  0.08995802  0.44965264    -0.81900
O272        O  0.45892777  0.02776458  0.41851764    -0.75400
Al273      Al  0.44020128  0.09526150  0.42104840     1.90100
O274        O  0.41006250  0.04285550  0.44833931    -0.74500
O275        O  0.43010116  0.01667757  0.36523996    -0.74300
O276        O  0.38067540  0.03344583  0.39422852    -0.80000
O277        O  0.44426217  0.05455713  0.33914795    -0.78200
O278        O  0.42589439  0.06951418  0.39426887    -1.14300
O279        O  0.44643653  0.10835271  0.35154909    -0.73500
C280        C  0.46854117  0.11267857  0.36727178     0.97200
C281        C  0.40663695  0.06637983  0.46303900     0.93600
Al282      Al  0.42029546  0.03320646  0.40571360     1.55600
O283        O  0.41877674  0.12806335  0.40395325    -0.78200
C284        C  0.44192654  0.02790153  0.34154522     0.97700
C285        C  0.47209253  0.04238057  0.43925761     0.92600
O286        O  0.46482173  0.06836199  0.44400196    -0.83500
O287        O  0.05886696  0.18584199  0.38561099    -0.82900
C288        C  0.16173930  0.24253797  0.36857949     0.96400
O289        O  0.14619544  0.23055232  0.34820291    -0.72100
O290        O  0.13907800  0.17675447  0.36207807    -0.75600
Al291      Al  0.11430744  0.20638863  0.35052166     1.49000
C292        C  0.12970912  0.15424637  0.37459453     0.91700
O293        O  0.11816919  0.18958940  0.44346664    -0.81900
O294        O  0.07315620  0.25645034  0.41845595    -0.75400
Al295      Al  0.08916541  0.18851693  0.41353102     1.90100
O296        O  0.12079448  0.23672154  0.44765314    -0.74500
O297        O  0.10401473  0.26999663  0.36658035    -0.74300
O298        O  0.15202057  0.24798878  0.39590331    -0.80000
O299        O  0.09035942  0.23422154  0.33574017    -0.78200
O300        O  0.10538024  0.21507181  0.39026161    -1.14300
O301        O  0.08416825  0.18026329  0.34250609    -0.73500
C302        C  0.06110987  0.17831675  0.35702913     0.97200
C303        C  0.12371907  0.21197329  0.45925664     0.93600
Al304      Al  0.11210485  0.25003271  0.40592573     1.55600
O305        O  0.10866959  0.15595824  0.39328885    -0.78200
C306        C  0.09277838  0.26060109  0.34117309     0.97700
C307        C  0.05892241  0.24075763  0.43696445     0.92600
O308        O  0.06560975  0.21450989  0.43917152    -0.83500
O309        O  0.33439173  0.33705180  0.26360602    -0.82900
C310        C  0.36247075  0.24131545  0.33671910     0.96400
O311        O  0.36761399  0.25058309  0.30915953    -0.72100
O312        O  0.35885550  0.28201491  0.25597243    -0.75600
Al313      Al  0.36918191  0.29116290  0.29893800     1.49000
C314        C  0.33544822  0.27943330  0.24156749     0.91700
O315        O  0.27646939  0.29028265  0.30386678    -0.81900
O316        O  0.29662322  0.31770494  0.35714121    -0.75400
Al317      Al  0.30825723  0.31192456  0.28645792     1.90100
O318        O  0.29613317  0.26197977  0.33849419    -0.74500
O319        O  0.35005953  0.31503065  0.36711178    -0.74300
O320        O  0.34916473  0.25698448  0.35608448    -0.80000
O321        O  0.38660947  0.29994718  0.33967280    -0.78200
O322        O  0.33380784  0.29706212  0.31193835    -1.14300
O323        O  0.37517950  0.33077840  0.28683712    -0.73500
C324        C  0.36012862  0.34441561  0.26727234     0.97200
C325        C  0.27451402  0.27029524  0.32391972     0.93600
Al326      Al  0.32402938  0.28861017  0.35132260     1.55600
O327        O  0.31247841  0.28264665  0.25616444    -0.78200
C328        C  0.37619601  0.31152758  0.36434078     0.97700
C329        C  0.29240126  0.34009094  0.34187432     0.92600
O330        O  0.30155839  0.34298495  0.31415233    -0.83500
O331        O  0.19834379  0.44334240  0.26167775    -0.82900
C332        C  0.17335245  0.04576571  0.32695546     0.96400
O333        O  0.16301821  0.03078914  0.30469494    -0.72100
O334        O  0.17335619  0.99434736  0.25612431    -0.75600
Al335      Al  0.16813556  0.49030314  0.30047742     1.49000
C336        C  0.19709074  0.99443137  0.24159996     0.91700
O337        O  0.26294208  0.48483195  0.29807364    -0.81900
O338        O  0.24332425  0.46481424  0.35201484    -0.75400
Al339      Al  0.22714771  0.46671776  0.28337773     1.90100
O340        O  0.24640187  0.51992425  0.32692495    -0.74500
O341        O  0.19343300  0.47564639  0.36955737    -0.74300
O342        O  0.19201042  0.03574378  0.34464619    -0.80000
O343        O  0.15399406  0.48324656  0.34353730    -0.78200
O344        O  0.20430787  0.48494931  0.31006234    -1.14300
O345        O  0.16066766  0.45023727  0.29015508    -0.73500
C346        C  0.17301703  0.43650121  0.26814534     0.97200
C347        C  0.26246753  0.00464459  0.31603118     0.93600
Al348      Al  0.21867422  0.49694478  0.34657803     1.55600
O349        O  0.22359716  0.49539223  0.25343205    -0.78200
C350        C  0.16705364  0.47659286  0.36869441     0.97700
C351        C  0.24002211  0.44020749  0.33967536     0.92600
O352        O  0.23073538  0.43714392  0.31187949    -0.83500
C353        C  0.28815874  0.38585297  0.37006217    -0.10300
C354        C  0.27497518  0.36232043  0.35536758     0.05900
C355        C  0.24631580  0.36345500  0.34699876    -0.04100
C356        C  0.23273862  0.38958489  0.34814832    -0.08500
C357        C  0.24798296  0.41442403  0.35626422     0.05000
C358        C  0.27442858  0.41216709  0.37115207    -0.03500
Br359      Br  0.29407725  0.44442585  0.38924130    -0.03200
H360        H  0.30997354  0.38451432  0.37764530     0.08900
H361        H  0.21170911  0.39112841  0.33810608     0.06900
Br362      Br  0.22633569  0.33174116  0.32812781    -0.03700
C363        C  0.19681092  0.24984774  0.32575814    -0.10300
C364        C  0.19109541  0.24989406  0.35851693     0.05900
C365        C  0.21367259  0.25540536  0.37956834    -0.04100
C366        C  0.24098212  0.26024741  0.36758596    -0.08500
C367        C  0.24635489  0.26046706  0.33481270     0.05000
C368        C  0.22382735  0.25531585  0.31394156    -0.03500
Br369      Br  0.22851767  0.25515506  0.26909279    -0.03200
H370        H  0.18001177  0.24581089  0.30885101     0.08900
H371        H  0.25797372  0.26502037  0.38404152     0.06900
Br372      Br  0.20896797  0.25669258  0.42461268    -0.03700
C373        C  0.13819390  0.07398059  0.35682886    -0.10300
C374        C  0.16116478  0.07388825  0.33585928     0.05900
C375        C  0.17449274  0.10001931  0.32890126    -0.04100
C376        C  0.16455196  0.12566727  0.34256837    -0.08500
C377        C  0.14160064  0.12594041  0.36405635     0.05000
C378        C  0.12879790  0.09931913  0.37153102    -0.03500
Br379      Br  0.09879387  0.09518708  0.40183873    -0.03200
H380        H  0.12814353  0.05383373  0.36286537     0.08900
H381        H  0.17480859  0.14555241  0.33604073     0.06900
Br382      Br  0.20576638  0.10169437  0.30022107    -0.03700
C383        C  0.01432883  0.11872429  0.34088105    -0.10300
C384        C  0.48999158  0.13110882  0.35427106     0.05900
C385        C  0.48818163  0.16091837  0.35866388    -0.04100
C386        C  0.01106510  0.17809000  0.34931038    -0.08500
C387        C  0.03682090  0.16509452  0.34221656     0.05000
C388        C  0.03784274  0.13573222  0.33447494    -0.03500
Br389      Br  0.07188334  0.11738601  0.32047090    -0.03200
H390        H  0.01560085  0.09566060  0.33798909     0.08900
H391        H  0.01036625  0.20085632  0.35483300     0.06900
Br392      Br  0.45775098  0.17919811  0.38077130    -0.03700
C393        C  0.38579823  0.16253992  0.33992355    -0.10300
C394        C  0.38822633  0.15815537  0.37273232     0.05900
C395        C  0.38234835  0.18132746  0.39327622    -0.04100
C396        C  0.37433651  0.20796726  0.38093384    -0.08500
C397        C  0.37211788  0.21251449  0.34798525     0.05000
C398        C  0.37801747  0.18916493  0.32749845    -0.03500
Br399      Br  0.37485901  0.19158338  0.28241354    -0.03200
H400        H  0.39053934  0.14513151  0.32358975     0.08900
H401        H  0.36983107  0.22531597  0.39742127     0.06900
Br402      Br  0.38364607  0.17728513  0.43828769    -0.03700
C403        C  0.31160942  0.99297012  0.33403792    -0.10300
C404        C  0.29188666  0.01379463  0.32486339     0.05900
C405        C  0.29923022  0.04298820  0.32955504    -0.04100
C406        C  0.32495833  0.05067152  0.34393536    -0.08500
C407        C  0.34375470  0.02987284  0.35482293     0.05000
C408        C  0.33705134  0.00073688  0.34938476    -0.03500
Br409      Br  0.36540329  0.47928602  0.36648565    -0.03200
H410        H  0.31118514  0.47565147  0.33280480     0.08900
H411        H  0.33034776  0.07318801  0.34669889     0.06900
Br412      Br  0.27564033  0.07358414  0.31573382    -0.03700
C413        C  0.41057135  0.40184244  0.23222850    -0.10300
C414        C  0.39633504  0.41050454  0.20463352     0.05900
C415        C  0.36968935  0.39743793  0.19847140    -0.04100
C416        C  0.35835572  0.37666807  0.21924156    -0.08500
C417        C  0.37268271  0.36805010  0.24688671     0.05000
C418        C  0.39917413  0.38138304  0.25310448    -0.03500
Br419      Br  0.42073571  0.37392256  0.29047197    -0.03200
H420        H  0.43072722  0.41163856  0.23824450     0.08900
H421        H  0.33821038  0.36681505  0.21329944     0.06900
Br422      Br  0.34806231  0.40593961  0.16144655    -0.03700
C423        C  0.46809936  0.01580359  0.26111903    -0.10300
C424        C  0.44285830  0.00580558  0.24724963     0.05900
C425        C  0.42066654  0.99593593  0.26690057    -0.04100
C426        C  0.42337432  0.99836466  0.29950504    -0.08500
C427        C  0.44721393  0.01144371  0.31293120     0.05000
C428        C  0.47033606  0.01875527  0.29376284    -0.03500
Br429      Br  0.49933123  0.55101267  0.30137941    -0.03200
H430        H  0.48158109  0.52708377  0.24025907     0.08900
H431        H  0.40531978  0.99313839  0.31417535     0.06900
Br432      Br  0.38555272  0.97981459  0.25185370    -0.03700
C433        C  0.21967713  0.01452202  0.15904519    -0.10300
C434        C  0.19535805  0.00669078  0.14188187     0.05900
C435        C  0.17367620  0.99119898  0.15691254    -0.04100
C436        C  0.17488905  0.98736169  0.18947231    -0.08500
C437        C  0.19758356  0.99845271  0.20730003     0.05000
C438        C  0.22085263  0.01088929  0.19163772    -0.03500
Br439      Br  0.25301158  0.02688613  0.21352727    -0.03200
H440        H  0.23635111  0.02668155  0.14766986     0.08900
H441        H  0.15757365  0.97634032  0.20104638     0.06900
Br442      Br  0.14009229  0.97840034  0.13531400    -0.03700
C443        C  0.07902516  0.04123141  0.13027569    -0.10300
C444        C  0.08864311  0.03212238  0.10005881     0.05900
C445        C  0.07003822  0.01535500  0.08114205    -0.04100
C446        C  0.04278487  0.00881752  0.09222119    -0.08500
C447        C  0.03346958  0.01807502  0.12218024     0.05000
C448        C  0.05191228  0.03417017  0.14140140    -0.03500
Br449      Br  0.04062547  0.04743149  0.18257313    -0.03200
H450        H  0.09262688  0.05403467  0.14554885     0.08900
H451        H  0.01904080  0.51506635  0.07239164     0.06900
Br452      Br  0.06646083  0.53028983  0.03177147    -0.03700
C453        C  0.11592488  0.38607793  0.23043698    -0.10300
C454        C  0.13137597  0.37051283  0.20738350     0.05900
C455        C  0.16078672  0.37676283  0.20532154    -0.04100
C456        C  0.17350451  0.39763293  0.22547136    -0.08500
C457        C  0.15805602  0.41317852  0.24856147     0.05000
C458        C  0.12865188  0.40692139  0.25060266    -0.03500
Br459      Br  0.10392543  0.42614831  0.27986933    -0.03200
H460        H  0.09347496  0.38198285  0.23304955     0.08900
H461        H  0.19593923  0.40179058  0.22281078     0.06900
Br462      Br  0.18539436  0.35802034  0.17550484    -0.03700
C463        C  0.10574373  0.29550943  0.26559552    -0.10300
C464        C  0.08259747  0.28423142  0.24847590     0.05900
C465        C  0.05928608  0.27321723  0.26525116    -0.04100
C466        C  0.06068301  0.27112218  0.29809492    -0.08500
C467        C  0.08540134  0.27886683  0.31461432     0.05000
C468        C  0.10724979  0.29301530  0.29840792    -0.03500
Br469      Br  0.14134945  0.30546253  0.31914157    -0.03200
H470        H  0.12325992  0.30550267  0.25329723     0.08900
H471        H  0.04389285  0.25981052  0.31028698     0.06900
Br472      Br  0.02691523  0.25659489  0.24482308    -0.03700
C473        C  0.00730989  0.36756623  0.08912354    -0.10300
C474        C  0.03534150  0.37316774  0.09824907     0.05900
C475        C  0.04520244  0.40149909  0.10150198    -0.04100
C476        C  0.02614856  0.42379188  0.09876313    -0.08500
C477        C  0.49309590  0.41522082  0.09498941     0.05000
C478        C  0.48359501  0.38686804  0.09139229    -0.03500
Br479      Br  0.44412644  0.37713348  0.09165020    -0.03200
H480        H  0.49580314  0.34287182  0.09104653     0.08900
H481        H  0.03323100  0.44549490  0.10408039     0.06900
Br482      Br  0.08311379  0.41069371  0.11438520    -0.03700
C483        C  0.11797183  0.19163904  0.13262896    -0.10300
C484        C  0.11374025  0.21252991  0.10961037     0.05900
C485        C  0.11685306  0.20418558  0.07729622    -0.04100
C486        C  0.12603520  0.17652013  0.06915417    -0.08500
C487        C  0.13119907  0.15605266  0.09224266     0.05000
C488        C  0.12613374  0.16364070  0.12434107    -0.03500
Br489      Br  0.13181370  0.13777917  0.15865288    -0.03200
H490        H  0.11515852  0.19715729  0.15737815     0.08900
H491        H  0.12954227  0.17104312  0.04449489     0.06900
Br492      Br  0.11000561  0.22906200  0.04236926    -0.03700
C493        C  0.31252636  0.26746564  0.15642009    -0.10300
C494        C  0.33724238  0.27540698  0.14039767     0.05900
C495        C  0.35947311  0.28842218  0.15737435    -0.04100
C496        C  0.35842241  0.28929280  0.19031575    -0.08500
C497        C  0.33524686  0.27759786  0.20673485     0.05000
C498        C  0.31151404  0.26789229  0.18931184    -0.03500
Br499      Br  0.27857029  0.25129408  0.20815725    -0.03200
H500        H  0.29542938  0.25710317  0.14345037     0.08900
H501        H  0.37616984  0.29857725  0.20310884     0.06900
Br502      Br  0.39331146  0.30159369  0.13698971    -0.03700
C503        C  0.26048761  0.12262176  0.12493739    -0.10300
C504        C  0.23566682  0.13313223  0.11150417     0.05900
C505        C  0.23421533  0.16199411  0.10259750    -0.04100
C506        C  0.25880303  0.17818399  0.10141013    -0.08500
C507        C  0.28467261  0.16595240  0.10933181     0.05000
C508        C  0.28507201  0.13940236  0.12481294    -0.03500
Br509      Br  0.31865879  0.12392054  0.14301369    -0.03200
H510        H  0.26137823  0.10067341  0.13291656     0.08900
H511        H  0.25818065  0.19924733  0.09091474     0.06900
Br512      Br  0.20054206  0.17932017  0.08702734    -0.03700
C513        C  0.44828252  0.24754427  0.12594458    -0.10300
C514        C  0.44083314  0.25124887  0.09390847     0.05900
C515        C  0.46057237  0.26530182  0.07420554    -0.04100
C516        C  0.48659874  0.27495938  0.08666194    -0.08500
C517        C  0.49367066  0.27136454  0.11867982     0.05000
C518        C  0.47412970  0.25746772  0.13824890    -0.03500
Br519      Br  0.97623469  0.26921899  0.18493276    -0.03200
H520        H  0.43382649  0.23691012  0.14189751     0.08900
H521        H  0.50156438  0.28540241  0.07111006     0.06900
Br522      Br  0.45406504  0.27148127  0.03007207    -0.03700
C523        C  0.36828327  0.10074186  0.08811509    -0.10300
C524        C  0.38788206  0.12220558  0.07992470     0.05900
C525        C  0.41689646  0.11704783  0.08522095    -0.04100
C526        C  0.42561954  0.09129624  0.09898365    -0.08500
C527        C  0.40585179  0.07061896  0.10884855     0.05000
C528        C  0.37692676  0.07547717  0.10298273    -0.03500
Br529      Br  0.34847162  0.04784146  0.11397645    -0.03200
H530        H  0.34595322  0.10409870  0.08401575     0.08900
H531        H  0.44801511  0.08737264  0.10199928     0.06900
Br532      Br  0.44555065  0.14391047  0.07263594    -0.03700
C533        C  0.36072512  0.23465367  0.93979236    -0.10300
C534        C  0.37294572  0.21191791  0.95636530     0.05900
C535        C  0.38460349  0.18870232  0.93938649    -0.04100
C536        C  0.38643763  0.19009297  0.90656216    -0.08500
C537        C  0.37788467  0.21480894  0.89056612     0.05000
C538        C  0.36292171  0.23614601  0.90705950    -0.03500
Br539      Br  0.34906278  0.26986467  0.88683941    -0.03200
H540        H  0.35012933  0.25187409  0.95243113     0.08900
H541        H  0.39821783  0.17365422  0.89397682     0.06900
Br542      Br  0.40195782  0.15668011  0.95960929    -0.03700
C543        C  0.12814045  0.09501733  0.91752719    -0.10300
C544        C  0.13990153  0.07393144  0.89745069     0.05900
C545        C  0.16034349  0.05533511  0.90965995    -0.04100
C546        C  0.16471849  0.05466991  0.94230915    -0.08500
C547        C  0.14991591  0.07321437  0.96282256     0.05000
C548        C  0.13299219  0.09484985  0.95000214    -0.03500
Br549      Br  0.11351962  0.12273513  0.97567581    -0.03200
H550        H  0.11274909  0.10985870  0.90834758     0.08900
H551        H  0.17951095  0.03934795  0.95176022     0.06900
Br552      Br  0.18101567  0.02886578  0.88343199    -0.03700
C553        C  0.01884429  0.16921375  0.86519551    -0.10300
C554        C  0.49088260  0.16527482  0.85820915     0.05900
C555        C  0.47943658  0.13747988  0.85718725    -0.04100
C556        C  0.99595290  0.11409323  0.85875708    -0.08500
C557        C  0.02527235  0.11845583  0.85899320     0.05000
C558        C  0.03682887  0.14583002  0.86409901    -0.03500
Br559      Br  0.07693259  0.15232383  0.86537618    -0.03200
H560        H  0.02785161  0.19065046  0.86612070     0.08900
H561        H  0.48912356  0.09281413  0.85407719     0.06900
Br562      Br  0.43971965  0.13054560  0.85106153    -0.03700
C563        C  0.24413294  0.25155704  0.96028996    -0.10300
C564        C  0.24431204  0.28125852  0.95464134     0.05900
C565        C  0.26596185  0.29774236  0.96961487    -0.04100
C566        C  0.28586593  0.28468526  0.98985887    -0.08500
C567        C  0.28532270  0.25497084  0.99594013     0.05000
C568        C  0.26388067  0.23851669  0.98049443    -0.03500
Br569      Br  0.25892731  0.19811400  0.98689844    -0.03200
H570        H  0.22782116  0.23823500  0.94956921     0.08900
H571        H  0.30230796  0.29792272  0.00044735     0.06900
Br572      Br  0.27073595  0.33795532  0.96196251    -0.03700
C573        C  0.14914969  0.34043867  0.01494990    -0.10300
C574        C  0.15463958  0.31494209  0.99799222     0.05900
C575        C  0.16093193  0.28987228  0.01538310    -0.04100
C576        C  0.15754502  0.28996419  0.04821871    -0.08500
C577        C  0.14832267  0.31453316  0.06426508     0.05000
C578        C  0.14638035  0.34035679  0.04780393    -0.03500
Br579      Br  0.13832824  0.37558767  0.06959219    -0.03200
H580        H  0.14626644  0.36041991  0.00266665     0.08900
H581        H  0.15956256  0.27002627  0.06084781     0.06900
Br582      Br  0.17403492  0.25446873  0.99685566    -0.03700
C583        C  0.05192594  0.27122046  0.81655113    -0.10300
C584        C  0.03162067  0.26542629  0.83970700     0.05900
C585        C  0.04006827  0.26675988  0.87184087    -0.04100
C586        C  0.06809979  0.27379876  0.88004916    -0.08500
C587        C  0.08844592  0.28017541  0.85696167     0.05000
C588        C  0.07981390  0.27894986  0.82467927    -0.03500
Br589      Br  0.10447870  0.28703618  0.78972273    -0.03200
H590        H  0.04595309  0.27003093  0.79184939     0.08900
H591        H  0.07390589  0.27456414  0.90480273     0.06900
Br592      Br  0.01495666  0.25766615  0.90595170    -0.03700
C593        C  0.13126799  0.42959543  0.89003132    -0.10300
C594        C  0.13210798  0.40617878  0.86897817     0.05900
C595        C  0.12432235  0.41094580  0.83690503    -0.04100
C596        C  0.11771201  0.43864492  0.82662700    -0.08500
C597        C  0.11714145  0.46200908  0.84768657     0.05000
C598        C  0.12317968  0.45693714  0.88002304    -0.03500
Br599      Br  0.12140672  0.48631106  0.91217854    -0.03200
H600        H  0.13694376  0.42663068  0.91455920     0.08900
H601        H  0.11240221  0.44183536  0.80202992     0.06900
Br602      Br  0.12309523  0.38142695  0.80478190    -0.03700
C603        C  0.27302163  0.49409157  0.98050122    -0.10300
C604        C  0.28487706  0.00886266  0.95799894     0.05900
C605        C  0.27482348  0.03731829  0.95454416    -0.04100
C606        C  0.25443426  0.04876410  0.97565133    -0.08500
C607        C  0.24348872  0.03297538  0.00116515     0.05000
C608        C  0.25430304  0.00492268  0.00524126    -0.03500
Br609      Br  0.23788898  0.47820186  0.03193294    -0.03200
H610        H  0.27922718  0.47189706  0.98263375     0.08900
H611        H  0.24683548  0.07027384  0.97172557     0.06900
Br612      Br  0.28773095  0.06228478  0.92176628    -0.03700
C613        C  0.37593321  0.44934390  0.00957817    -0.10300
C614        C  0.37766761  0.47547827  0.99333566     0.05900
C615        C  0.37860504  0.50143571  0.01115344    -0.04100
C616        C  0.37895774  0.50050824  0.04404084    -0.08500
C617        C  0.37936662  0.47434616  0.05981265     0.05000
C618        C  0.37690287  0.44871825  0.04247356    -0.03500
Br619      Br  0.37723755  0.41243454  0.06311607    -0.03200
H620        H  0.37421702  0.42915559  0.99675484     0.08900
H621        H  0.38228666  0.52032345  0.05722270     0.06900
Br622      Br  0.38181012  0.53902776  0.99319720    -0.03700
C623        C  0.25973319  0.42482243  0.84807067    -0.10300
C624        C  0.28589135  0.41152216  0.85195761     0.05900
C625        C  0.28792537  0.38150517  0.85075977    -0.04100
C626        C  0.26344449  0.36511077  0.84923551    -0.08500
C627        C  0.23711726  0.37839404  0.84945438     0.05000
C628        C  0.23513787  0.40829976  0.84655723    -0.03500
Br629      Br  0.19958828  0.42773335  0.84564968    -0.03200
H630        H  0.25826468  0.44800155  0.84890306     0.08900
H631        H  0.26483308  0.34205604  0.85171309     0.06900
Br632      Br  0.32258787  0.36160494  0.85737659    -0.03700
C633        C  0.44430036  0.00561884  0.82664252    -0.10300
C634        C  0.43729464  0.50604826  0.85225957     0.05900
C635        C  0.46095376  0.50337999  0.87218177    -0.04100
C636        C  0.48752659  0.01372282  0.87048097    -0.08500
C637        C  0.49353423  0.01658382  0.83811403     0.05000
C638        C  0.47149017  0.01278900  0.81612960    -0.03500
Br639      Br  0.47736289  0.01636256  0.77151608    -0.03200
H640        H  0.42773403  0.00244535  0.80924193     0.08900
H641        H  0.00173415  0.01884234  0.88635061     0.06900
Br642      Br  0.45768804  0.48992843  0.91470203    -0.03700
C643        C  0.39753866  0.36076451  0.89023053    -0.10300
C644        C  0.39116821  0.38098018  0.86715550     0.05900
C645        C  0.39332612  0.37232213  0.83492053    -0.04100
C646        C  0.40112629  0.34419176  0.82664898    -0.08500
C647        C  0.40760088  0.32388733  0.84963900     0.05000
C648        C  0.40612083  0.33278450  0.88196726    -0.03500
Br649      Br  0.41451897  0.30811416  0.91670964    -0.03200
H650        H  0.39578093  0.36677014  0.91497329     0.08900
H651        H  0.40203897  0.33815592  0.80185994     0.06900
Br652      Br  0.38347654  0.39668473  0.80048633    -0.03700
C653        C  0.39750650  0.13386265  0.69993978    -0.10300
C654        C  0.36900121  0.12581147  0.70475007     0.05900
C655        C  0.35489803  0.13932358  0.73064375    -0.04100
C656        C  0.36906382  0.15974194  0.75027065    -0.08500
C657        C  0.39767940  0.16754506  0.74560332     0.05000
C658        C  0.41170625  0.15409485  0.71959525    -0.03500
Br659      Br  0.45037327  0.16209934  0.70853796    -0.03200
H660        H  0.40922398  0.12407942  0.68066046     0.08900
H661        H  0.35745904  0.16946103  0.76967232     0.06900
Br662      Br  0.31645165  0.13053700  0.74173616    -0.03700
C663        C  0.40616885  0.04765189  0.54961282    -0.10300
C664        C  0.39101328  0.07077664  0.56210013     0.05900
C665        C  0.38328772  0.09347172  0.54252820    -0.04100
C666        C  0.38815890  0.09138225  0.51021197    -0.08500
C667        C  0.40080690  0.06684040  0.49702631     0.05000
C668        C  0.41092535  0.04527147  0.51724369    -0.03500
Br669      Br  0.43095887  0.01175949  0.50303510    -0.03200
H670        H  0.41174264  0.02988564  0.56459935     0.08900
H671        H  0.38135435  0.10870634  0.49527035     0.06900
Br672      Br  0.36396969  0.12656306  0.55879666    -0.03700
C673        C  0.31020461  0.01230710  0.79221627    -0.10300
C674        C  0.33231750  0.02365386  0.81080932     0.05900
C675        C  0.35071038  0.54482713  0.79477029    -0.04100
C676        C  0.35132753  0.54543795  0.76187717    -0.08500
C677        C  0.33160240  0.03204994  0.74543713     0.05000
C678        C  0.30984116  0.01607002  0.75966939    -0.03500
Br679      Br  0.28122252  0.99590856  0.73580096    -0.03200
H680        H  0.29482121  0.99788587  0.80260337     0.08900
H681        H  0.36822385  0.55714469  0.75035143     0.06900
Br682      Br  0.38066675  0.56401657  0.81737799    -0.03700
C683        C  0.12195963  0.15416652  0.70756434    -0.10300
C684        C  0.15165608  0.15442408  0.70435485     0.05900
C685        C  0.16695921  0.13482717  0.72318678    -0.04100
C686        C  0.15284085  0.11674594  0.74469351    -0.08500
C687        C  0.12320765  0.11688633  0.74837370     0.05000
C688        C  0.10782387  0.13599985  0.72902601    -0.03500
Br689      Br  0.06743449  0.13976347  0.73133318    -0.03200
H690        H  0.10949811  0.16894949  0.69392379     0.08900
H691        H  0.16531654  0.10195864  0.75831489     0.06900
Br692      Br  0.20725170  0.13034301  0.72021168    -0.03700
C693        C  0.15381393  0.18787958  0.53671861    -0.10300
C694        C  0.14012794  0.20686040  0.55785511     0.05900
C695        C  0.11856734  0.22459915  0.54660224    -0.04100
C696        C  0.11370173  0.22586846  0.51418225    -0.08500
C697        C  0.12968841  0.20928431  0.49287902     0.05000
C698        C  0.14889689  0.18911068  0.50431674    -0.03500
Br699      Br  0.17139922  0.16550421  0.47663997    -0.03200
H700        H  0.17058353  0.17419385  0.54512672     0.08900
H701        H  0.09773509  0.24034507  0.50548053     0.06900
Br702      Br  0.09749539  0.24992313  0.57372714    -0.03700
C703        C  0.21743348  0.25862002  0.76038333    -0.10300
C704        C  0.19310353  0.24689966  0.74606403     0.05900
C705        C  0.17001796  0.23868804  0.76536827    -0.04100
C706        C  0.17074623  0.24462816  0.79770227    -0.08500
C707        C  0.19380051  0.25909509  0.81119980     0.05000
C708        C  0.21783306  0.26488340  0.79271442    -0.03500
Br709      Br  0.25095975  0.28269135  0.81060456    -0.03200
H710        H  0.23583125  0.26385324  0.74625305     0.08900
H711        H  0.15208276  0.24028822  0.81181086     0.06900
Br712      Br  0.13662112  0.21951284  0.74983428    -0.03700
C713        C  0.28117599  0.13211717  0.57600684    -0.10300
C714        C  0.26991200  0.10810419  0.59102884     0.05900
C715        C  0.24073540  0.10651424  0.59715109    -0.04100
C716        C  0.22483780  0.13121706  0.59549239    -0.08500
C717        C  0.23815709  0.15704619  0.58810544     0.05000
C718        C  0.26465414  0.15654546  0.57308879    -0.03500
Br719      Br  0.27956322  0.18876739  0.55091486    -0.03200
H720        H  0.30314134  0.13267102  0.56894244     0.08900
H721        H  0.20349703  0.13115754  0.60492471     0.06900
Br722      Br  0.22239332  0.07327252  0.61328331    -0.03700
C723        C  0.50258861  0.28967569  0.47121411    -0.10300
C724        C  0.49342803  0.27483697  0.49833308     0.05900
C725        C  0.00187943  0.24684255  0.50242101    -0.04100
C726        C  0.02331491  0.23634616  0.48189770    -0.08500
C727        C  0.03505064  0.25298418  0.45737841     0.05000
C728        C  0.02413966  0.28108157  0.45408656    -0.03500
Br729      Br  0.53226896  0.30125681  0.41404664    -0.03200
H730        H  0.49295674  0.30997237  0.46558316     0.08900
H731        H  0.03104436  0.21483133  0.48546543     0.06900
Br732      Br  0.98862938  0.22113705  0.53430660    -0.03700
C733        C  0.39088914  0.33760287  0.44530745    -0.10300
C734        C  0.40009647  0.31201268  0.45902047     0.05900
C735        C  0.40781891  0.28876764  0.43892062    -0.04100
C736        C  0.40405962  0.29087323  0.40631775    -0.08500
C737        C  0.39254607  0.31557282  0.39322958     0.05000
C738        C  0.38716943  0.33949949  0.41276551    -0.03500
Br739      Br  0.37281183  0.37452974  0.39597032    -0.03200
H740        H  0.38594835  0.35612382  0.45997886     0.08900
H741        H  0.40776043  0.27214533  0.39145445     0.06900
Br742      Br  0.42347453  0.25340371  0.45354799    -0.03700
C743        C  0.46662136  0.26927281  0.66213029    -0.10300
C744        C  0.44327807  0.25848520  0.64500687     0.05900
C745        C  0.42224802  0.24300746  0.66100725    -0.04100
C746        C  0.42284391  0.24183812  0.69378653    -0.08500
C747        C  0.44433383  0.25566120  0.71116281     0.05000
C748        C  0.46725586  0.26813404  0.69508152    -0.03500
Br749      Br  0.49795743  0.28701729  0.71673148    -0.03200
H750        H  0.48275235  0.28160312  0.65013738     0.08900
H751        H  0.40590848  0.23061896  0.70582295     0.06900
Br752      Br  0.38984616  0.22693929  0.64022828    -0.03700
C753        C  0.32135632  0.29489477  0.61661628    -0.10300
C754        C  0.33794378  0.27597803  0.59817560     0.05900
C755        C  0.32883989  0.24720705  0.59484508    -0.04100
C756        C  0.30405744  0.23802473  0.61020065    -0.08500
C757        C  0.28696798  0.25730525  0.62730501     0.05000
C758        C  0.29593613  0.28594256  0.63056936    -0.03500
Br759      Br  0.27469563  0.31316514  0.65511258    -0.03200
H760        H  0.32817782  0.31692637  0.62015062     0.08900
H761        H  0.29748603  0.21585965  0.60785757     0.06900
Br762      Br  0.34947518  0.21939563  0.57028255    -0.03700
C763        C  0.38595447  0.41355005  0.61561556    -0.10300
C764        C  0.38764046  0.40700425  0.58305170     0.05900
C765        C  0.38145408  0.42885901  0.56161397    -0.04100
C766        C  0.37360273  0.45631144  0.57280561    -0.08500
C767        C  0.37212875  0.46313450  0.60551232     0.05000
C768        C  0.37862346  0.44108865  0.62693060    -0.03500
Br769      Br  0.37738405  0.44658491  0.67194232    -0.03200
H770        H  0.39094881  0.39713932  0.63256167     0.08900
H771        H  0.36869213  0.47249991  0.55559086     0.06900
Br772      Br  0.38203497  0.42175592  0.51687486    -0.03700
C773        C  0.50680774  0.04407922  0.48524061    -0.10300
C774        C  0.49498728  0.02863440  0.45946031     0.05900
C775        C  0.00677035  0.00180275  0.45299497    -0.04100
C776        C  0.02630182  0.98911774  0.47384119    -0.08500
C777        C  0.03558211  0.00286853  0.50193006     0.05000
C778        C  0.02418905  0.03046294  0.50852341    -0.03500
Br779      Br  0.54021150  0.05629333  0.53978015    -0.03200
H780        H  0.50020163  0.06595352  0.48967410     0.08900
H781        H  0.03471945  0.96826669  0.46754360     0.06900
Br782      Br  0.99772533  0.98005793  0.41542196    -0.03700
C783        C  0.09857534  0.04073534  0.69480883    -0.10300
C784        C  0.08074093  0.02445183  0.71425761     0.05900
C785        C  0.06047063  0.00607214  0.70050196    -0.04100
C786        C  0.06039701  0.00195033  0.66787730    -0.08500
C787        C  0.08070599  0.01546538  0.64869759     0.05000
C788        C  0.09839614  0.03673703  0.66207158    -0.03500
Br789      Br  0.12431703  0.05915239  0.63748169    -0.03200
H790        H  0.11292990  0.05644661  0.70518109     0.08900
H791        H  0.04527018  0.49425815  0.64951367     0.06900
Br792      Br  0.03491184  0.98343817  0.72522533    -0.03700
C793        C  0.15523729  0.48191908  0.45576838    -0.10300
C794        C  0.13686694  0.45909166  0.46149054     0.05900
C795        C  0.12669722  0.44237014  0.43564708    -0.04100
C796        C  0.13501117  0.44924691  0.40467653    -0.08500
C797        C  0.15316964  0.47259817  0.39934249     0.05000
C798        C  0.16319943  0.48891312  0.42548296    -0.03500
Br799      Br  0.16654526  0.03656007  0.41602381    -0.03200
H800        H  0.14762069  0.00975740  0.47205448     0.08900
H801        H  0.12800785  0.43593995  0.38497521     0.06900
Br802      Br  0.10114844  0.41066752  0.44089569    -0.03700
C803        C  0.48553400  0.39931498  0.61148638    -0.10300
C804        C  0.48831445  0.36960138  0.60817657     0.05900
C805        C  0.01457064  0.35668271  0.60808805    -0.04100
C806        C  0.03888578  0.37347479  0.60764085    -0.08500
C807        C  0.03655869  0.40321739  0.60503564     0.05000
C808        C  0.01030984  0.41672931  0.60820136    -0.03500
Br809      Br  0.00659868  0.45757322  0.60587086    -0.03200
H810        H  0.46481419  0.40913215  0.61080270     0.08900
H811        H  0.05931423  0.36321080  0.60531704     0.06900
Br812      Br  0.01817473  0.31575965  0.60494468    -0.03700
C813        C  0.22601160  0.50392058  0.64043102    -0.10300
C814        C  0.24621727  0.00625872  0.62174289     0.05900
C815        C  0.23969960  0.99817945  0.59006553    -0.04100
C816        C  0.21159661  0.99269252  0.58103602    -0.08500
C817        C  0.19119643  0.49041163  0.59992982     0.05000
C818        C  0.19849646  0.49512605  0.63218155    -0.03500
Br819      Br  0.17210312  0.49130760  0.66647704    -0.03200
H820        H  0.23088558  0.50858657  0.66499158     0.08900
H821        H  0.20703327  0.98714683  0.55661132     0.06900
Br822      Br  0.26743696  0.99569158  0.55700417    -0.03700
C823        C  0.14887668  0.36328864  0.61581054    -0.10300
C824        C  0.13858355  0.36555253  0.58450508     0.05900
C825        C  0.13745398  0.34032058  0.56574299    -0.04100
C826        C  0.14701898  0.31418503  0.57801016    -0.08500
C827        C  0.15698271  0.31207889  0.60929961     0.05000
C828        C  0.15773745  0.33701286  0.62824080    -0.03500
Br829      Br  0.17229547  0.33650452  0.67053546    -0.03200
H830        H  0.14978664  0.38211152  0.63106017     0.08900
H831        H  0.14666751  0.29523938  0.56290467     0.06900
Br832      Br  0.12425141  0.34026012  0.52291659    -0.03700
O833        O  0.06454540  0.96243883  0.51705088    -0.82900
C834        C  0.16012535  0.98681319  0.59258434     0.96400
O835        O  0.15070445  0.99362628  0.56568509    -0.72100
O836        O  0.12033210  0.98653848  0.51266941    -0.75600
Al837      Al  0.11073322  0.99573509  0.55520784     1.49000
C838        C  0.12285855  0.96391516  0.49595569     0.91700
O839        O  0.11000680  0.90083055  0.55460798    -0.81900
O840        O  0.08523380  0.91980754  0.60755875    -0.75400
Al841      Al  0.08885016  0.93467382  0.53850096     1.90100
O842        O  0.13976033  0.92124552  0.58786565    -0.74500
O843        O  0.08826456  0.97282568  0.62209292    -0.74300
O844        O  0.14460549  0.97310562  0.61112001    -0.80000
O845        O  0.10457516  0.50962898  0.59134476    -0.78200
O846        O  0.10460220  0.95956119  0.56541588    -1.14300
O847        O  0.07561398  0.50039219  0.53783379    -0.73500
C848        C  0.05818566  0.98859125  0.52203753     0.97200
C849        C  0.13076699  0.89900341  0.57389876     0.93600
Al850      Al  0.11374064  0.94786429  0.60379776     1.55600
O851        O  0.11715876  0.93961821  0.50727824    -0.78200
C852        C  0.08955072  0.99961280  0.62026541     0.97700
C853        C  0.06167113  0.91904715  0.59411140     0.92600
O854        O  0.05846422  0.92843164  0.56658991    -0.83500
O855        O  0.47010150  0.81585663  0.52394839    -0.82900
C856        C  0.36845840  0.79272088  0.58940064     0.96400
O857        O  0.38032056  0.78454881  0.56401482    -0.72100
O858        O  0.41349473  0.79551514  0.51301374    -0.75600
Al859      Al  0.42066429  0.78313159  0.55589694     1.49000
C860        C  0.41342892  0.81986078  0.49968733     0.91700
O861        O  0.42851397  0.87861287  0.56352880    -0.81900
O862        O  0.44626812  0.85498713  0.61734150    -0.75400
Al863      Al  0.44675729  0.84348265  0.54697075     1.90100
O864        O  0.39370631  0.86128050  0.59159155    -0.74500
O865        O  0.43468974  0.80274297  0.62791247    -0.74300
O866        O  0.38140572  0.80896544  0.60836549    -0.80000
O867        O  0.42727936  0.76521533  0.59679357    -0.78200
O868        O  0.42711753  0.81887545  0.57000933    -1.14300
O869        O  0.45998174  0.77489688  0.54494396    -0.73500
C870        C  0.47519410  0.78936376  0.52623634     0.97200
C871        C  0.40617405  0.88249661  0.57974689     0.93600
Al872      Al  0.41493994  0.83073210  0.60789164     1.55600
O873        O  0.42002361  0.84256194  0.51460245    -0.78200
C874        C  0.43472029  0.77618921  0.62320467     0.97700
C875        C  0.47058470  0.85510351  0.60530913     0.92600
O876        O  0.47512261  0.84525573  0.57788617    -0.83500
O877        O  0.22431149  0.68432629  0.64048070    -0.82900
C878        C  0.17153100  0.79043754  0.62312147     0.96400
O879        O  0.18745134  0.77647539  0.60495053    -0.72100
O880        O  0.23911743  0.76643692  0.62474022    -0.75600
Al881      Al  0.20972473  0.74320830  0.60797235     1.49000
C882        C  0.25997883  0.75473495  0.63760742     0.91700
O883        O  0.21981933  0.74170290  0.70326066    -0.81900
O884        O  0.15441794  0.69954019  0.66952928    -0.75400
Al885      Al  0.22188037  0.71390071  0.67050408     1.90100
O886        O  0.17350704  0.74754837  0.70129111    -0.74500
O887        O  0.14543432  0.73098480  0.61795357    -0.74300
O888        O  0.16432280  0.77998771  0.64948610    -0.80000
O889        O  0.18252550  0.72129212  0.58834212    -0.78200
O890        O  0.19783624  0.73251857  0.64602133    -1.14300
O891        O  0.23418458  0.71137546  0.60007223    -0.73500
C892        C  0.23220704  0.68698497  0.61222371     0.97200
C893        C  0.19652734  0.74744700  0.71669960     0.93600
Al894      Al  0.16247215  0.73920324  0.65858636     1.55600
O895        O  0.25628388  0.73262979  0.65437932    -0.78200
C896        C  0.15628447  0.72141119  0.59259002     0.97700
C897        C  0.16877865  0.68392069  0.68774067     0.92600
O898        O  0.19453259  0.69005585  0.69211108    -0.83500
O899        O  0.30040948  0.59499932  0.63542884    -0.82900
C900        C  0.36460387  0.99491421  0.61985719     0.96400
O901        O  0.35053082  0.50813441  0.59562440    -0.72100
O902        O  0.29692707  0.51240472  0.61235834    -0.75600
Al903      Al  0.32449605  0.53942846  0.59996065     1.49000
C904        C  0.27477120  0.52043008  0.62640948     0.91700
O905        O  0.31002161  0.53669014  0.69418620    -0.81900
O906        O  0.37399059  0.58351226  0.66717158    -0.75400
Al907      Al  0.30671750  0.56482389  0.66376526     1.90100
O908        O  0.35638528  0.53505274  0.69611466    -0.74500
O909        O  0.38644277  0.55295998  0.61402732    -0.74300
O910        O  0.36711608  0.50307889  0.64322212    -0.80000
O911        O  0.35025093  0.56582548  0.58486221    -0.78200
O912        O  0.33316452  0.54934775  0.63952969    -1.14300
O913        O  0.29618878  0.56775690  0.59311561    -0.73500
C914        C  0.29094713  0.59060054  0.60796185     0.97200
C915        C  0.33242961  0.53291559  0.70937089     0.93600
Al916      Al  0.36812547  0.54387062  0.65387903     1.55600
O917        O  0.27569895  0.54166718  0.64569617    -0.78200
C918        C  0.37640575  0.56452123  0.58948116     0.97700
C919        C  0.35824164  0.59762978  0.68605769     0.92600
O920        O  0.33215131  0.59091231  0.68756807    -0.83500
O921        O  0.30817971  0.93421693  0.89285174    -0.82900
C922        C  0.40900014  0.99442077  0.86836903     0.96400
O923        O  0.39442247  0.97992332  0.84888035    -0.72100
O924        O  0.38814083  0.92672666  0.86730263    -0.75600
Al925      Al  0.36253265  0.95504069  0.85376157     1.49000
C926        C  0.37952340  0.90528708  0.88238226     0.91700
O927        O  0.36870243  0.94787845  0.94823312    -0.81900
O928        O  0.32129014  0.51280514  0.91520469    -0.75400
Al929      Al  0.33915774  0.94192562  0.91933382     1.90100
O930        O  0.36801814  0.99479786  0.94689142    -0.74500
O931        O  0.35011724  0.52356879  0.86139145    -0.74300
O932        O  0.39858466  0.00178870  0.89474459    -0.80000
O933        O  0.33771331  0.98085384  0.83640944    -0.78200
O934        O  0.35369051  0.96675282  0.89255593    -1.14300
O935        O  0.33276359  0.92757043  0.84929024    -0.73500
C936        C  0.31058376  0.92415050  0.86523629     0.97200
C937        C  0.37208334  0.97192296  0.96176664     0.93600
Al938      Al  0.35903922  0.00329517  0.90415906     1.55600
O939        O  0.35976723  0.90832545  0.90262905    -0.78200
C940        C  0.33973367  0.00757208  0.83895480     0.97700
C941        C  0.30742478  0.99519690  0.93708865     0.92600
O942        O  0.31497678  0.96949508  0.94196527    -0.83500
O943        O  0.21657752  0.85146778  0.89458319    -0.82900
C944        C  0.11473050  0.79214313  0.87027633     0.96400
O945        O  0.13060077  0.80483976  0.85102022    -0.72100
O946        O  0.13677750  0.85860383  0.86931890    -0.75600
Al947      Al  0.16247644  0.82991025  0.85663536     1.49000
C948        C  0.14542412  0.88093793  0.88343728     0.91700
O949        O  0.15705093  0.84255245  0.95223481    -0.81900
O950        O  0.20262461  0.77764608  0.92202101    -0.75400
Al951      Al  0.18592944  0.84609294  0.92183667     1.90100
O952        O  0.15431279  0.79549618  0.95120634    -0.74500
O953        O  0.17322273  0.76644311  0.86837390    -0.74300
O954        O  0.12402166  0.78666663  0.89767899    -0.80000
O955        O  0.18792234  0.80322764  0.84080173    -0.78200
O956        O  0.17058027  0.82015026  0.89610255    -1.14300
O957        O  0.19194854  0.85731287  0.85137591    -0.73500
C958        C  0.21450754  0.86010380  0.86666998     0.97200
C959        C  0.15223958  0.81917179  0.96597105     0.93600
Al960      Al  0.16387840  0.78449265  0.90873858     1.55600
O961        O  0.16525872  0.87908605  0.90382251    -0.78200
C962        C  0.18582604  0.77670693  0.84452838     0.97700
C963        C  0.21686738  0.79306617  0.94132553     0.92600
O964        O  0.21026734  0.81932304  0.94489634    -0.83500
O965        O  0.08841934  0.58923719  0.76332729    -0.82900
C966        C  0.10815673  0.99421335  0.84314012     0.96400
O967        O  0.11664765  0.50072136  0.80990248    -0.72100
O968        O  0.10801730  0.53149530  0.75656988    -0.75600
Al969      Al  0.11954767  0.54116760  0.79911760     1.49000
C970        C  0.08428343  0.53075803  0.74240420     0.91700
O971        O  0.02587549  0.55008664  0.80305098    -0.81900
O972        O  0.04842299  0.57181015  0.85606751    -0.75400
Al973      Al  0.06063453  0.56733295  0.78647418     1.90100
O974        O  0.04177680  0.51685004  0.83388624    -0.74500
O975        O  0.09983047  0.56139778  0.86909813    -0.74300
O976        O  0.09319876  0.50582249  0.85399065    -0.80000
O977        O  0.13685730  0.55054014  0.83982838    -0.78200
O978        O  0.08434205  0.54913598  0.81161957    -1.14300
O979        O  0.12861723  0.58013139  0.78587026    -0.73500
C980        C  0.11439961  0.59482851  0.76655812     0.97200
C981        C  0.02115289  0.52868034  0.82049277     0.93600
Al982      Al  0.07206639  0.53965434  0.84986409     1.55600
O983        O  0.06170509  0.53800945  0.75612455    -0.78200
C984        C  0.12611031  0.56075227  0.86507225     0.97700
C985        C  0.04842864  0.59559945  0.84248798     0.92600
O986        O  0.05842449  0.59845547  0.81508973    -0.83500
O987        O  0.43651944  0.69184586  0.77077432    -0.82900
C988        C  0.41048258  0.78794969  0.84656922     0.96400
O989        O  0.40445074  0.77809084  0.81923396    -0.72100
O990        O  0.41365709  0.74739978  0.76518119    -0.75600
Al991      Al  0.40238836  0.73771326  0.80758531     1.49000
C992        C  0.43752914  0.75032269  0.75179398     0.91700
O993        O  0.49585441  0.73641573  0.81394880    -0.81900
O994        O  0.47391321  0.71004967  0.86545357    -0.75400
Al995      Al  0.46297684  0.71594780  0.79534617     1.90100
O996        O  0.47656254  0.76591360  0.84831291    -0.74500
O997        O  0.42074012  0.71493038  0.87611506    -0.74300
O998        O  0.42346304  0.77241016  0.86568986    -0.80000
O999        O  0.38443879  0.72829506  0.84764548    -0.78200
O1000       O  0.43755421  0.73142370  0.82088135    -1.14300
O1001       O  0.39558970  0.69825667  0.79357099    -0.73500
C1002       C  0.41068175  0.68467676  0.77355069     0.97200
C1003       C  0.99984544  0.75648426  0.83422830     0.93600
Al1004     Al  0.44752001  0.74009066  0.86044548     1.55600
O1005       O  0.46014944  0.74567259  0.76645611    -0.78200
C1006       C  0.39454148  0.71684841  0.87219086     0.97700
C1007       C  0.47690953  0.68728309  0.84970158     0.92600
O1008       O  0.46755220  0.68460628  0.82199859    -0.83500
O1009       O  0.30722040  0.71334257  0.02319096    -0.82900
C1010       C  0.40754061  0.73780394  0.09140384     0.96400
O1011       O  0.39692483  0.74375561  0.06476303    -0.72100
O1012       O  0.36373327  0.73395486  0.01320314    -0.75600
Al1013     Al  0.35653761  0.74658683  0.05602649     1.49000
C1014       C  0.36419761  0.70959259  0.99935976     0.91700
O1015       O  0.34993069  0.65209447  0.06255127    -0.81900
O1016       O  0.32876445  0.67518783  0.11611737    -0.75400
Al1017     Al  0.33065236  0.68603369  0.04577934     1.90100
O1018       O  0.38293718  0.67135942  0.09244587    -0.74500
O1019       O  0.33747604  0.72862617  0.12633329    -0.74300
O1020       O  0.39283823  0.72426972  0.11107314    -0.80000
O1021       O  0.34991948  0.76529106  0.09712698    -0.78200
O1022       O  0.34916404  0.71135549  0.06962412    -1.14300
O1023       O  0.31745310  0.75498498  0.04448768    -0.73500
C1024       C  0.30214300  0.73991147  0.02586906     0.97200
C1025       C  0.37235720  0.64961767  0.07895797     0.93600
Al1026     Al  0.35971594  0.70089088  0.10808561     1.55600
O1027       O  0.35792089  0.68695603  0.01377092    -0.78200
C1028       C  0.34024464  0.75511400  0.12273369     0.97700
C1029       C  0.30468452  0.67522422  0.10346899     0.92600
O1030       O  0.30147228  0.68378716  0.07560941    -0.83500
O1031       O  0.05054896  0.84536103  0.15084025    -0.82900
C1032       C  0.10451069  0.74252320  0.11814250     0.96400
O1033       O  0.09083545  0.75877884  0.10030612    -0.72100
O1034       O  0.03891135  0.76579588  0.12040363    -0.75600
Al1035     Al  0.06762653  0.79147184  0.10811389     1.49000
C1036       C  0.01783829  0.77431074  0.13604392     0.91700
O1037       O  0.05920027  0.78190144  0.20271109    -0.81900
O1038       O  0.12249754  0.83016327  0.17207565    -0.75400
Al1039     Al  0.05536810  0.81298413  0.17536124     1.90100
O1040       O  0.10572419  0.78082151  0.20084983    -0.74500
O1041       O  0.13113691  0.80089201  0.11729528    -0.74300
O1042       O  0.11149422  0.75115666  0.14566688    -0.80000
O1043       O  0.09410248  0.81689294  0.09215276    -0.78200
O1044       O  0.07930331  0.79822615  0.14744658    -1.14300
O1045       O  0.04223726  0.82256536  0.10615330    -0.73500
C1046       C  0.04280330  0.84528382  0.12245667     0.97200
C1047       C  0.08268253  0.77749096  0.21581494     0.93600
Al1048     Al  0.11486992  0.79111285  0.15812991     1.55600
O1049       O  0.02114593  0.79387006  0.15718549    -0.78200
C1050       C  0.12029443  0.81388668  0.09414505     0.97700
C1051       C  0.10912660  0.84359135  0.19363446     0.92600
O1052       O  0.08367099  0.83610057  0.19940807    -0.83500
O1053       O  0.21181087  0.57205404  0.01698825    -0.82900
C1054       C  0.11519162  0.53880901  0.08656956     0.96400
O1055       O  0.12528138  0.53406123  0.05919312    -0.72100
O1056       O  0.15691500  0.54540126  0.00671663    -0.75600
Al1057     Al  0.16563457  0.53465913  0.04955312     1.49000
C1058       C  0.15429868  0.56930504  0.99306075     0.91700
O1059       O  0.16192964  0.62885034  0.05708472    -0.81900
O1060       O  0.18660573  0.60958305  0.11006139    -0.75400
Al1061     Al  0.18538365  0.59738564  0.03962828     1.90100
O1062       O  0.13241890  0.60648633  0.08848776    -0.74500
O1063       O  0.18568475  0.55546942  0.11892081    -0.74300
O1064       O  0.12967663  0.55276145  0.10643373    -0.80000
O1065       O  0.17512485  0.51735213  0.08995369    -0.78200
O1066       O  0.17000387  0.57059606  0.06347105    -1.14300
O1067       O  0.20474170  0.53012319  0.03792814    -0.73500
C1068       C  0.21894180  0.54596219  0.01968763     0.97200
C1069       C  0.14053953  0.62928456  0.07558492     0.93600
Al1070     Al  0.15946109  0.58002079  0.10249293     1.55600
O1071       O  0.15830268  0.59260514  0.00780072    -0.78200
C1072       C  0.18602777  0.52883136  0.11455030     0.97700
C1073       C  0.20998721  0.61370983  0.09682613     0.92600
O1074       O  0.21464390  0.60454408  0.06918815    -0.83500
O1075       O  0.47068851  0.93719245  0.13992038    -0.82900
C1076       C  0.41330484  0.54037584  0.12230545     0.96400
O1077       O  0.42802487  0.52668507  0.10251888    -0.72100
O1078       O  0.48028747  0.51514795  0.11886329    -0.75600
Al1079     Al  0.45334908  0.99414048  0.10406690     1.49000
C1080       C  0.00324671  0.50496749  0.13207662     0.91700
O1081       O  0.46465640  0.99756942  0.19828174    -0.81900
O1082       O  0.39941576  0.95240253  0.16747483    -0.75400
Al1083     Al  0.46697034  0.96821262  0.16806214     1.90100
O1084       O  0.41573087  0.49589981  0.19851287    -0.74500
O1085       O  0.38965438  0.98466827  0.11580596    -0.74300
O1086       O  0.40649795  0.52926087  0.14838185    -0.80000
O1087       O  0.42557014  0.97038232  0.08668552    -0.78200
O1088       O  0.44247303  0.98514767  0.14295214    -1.14300
O1089       O  0.47848352  0.96302054  0.09777887    -0.73500
C1090       C  0.48075877  0.94004808  0.11263127     0.97200
C1091       C  0.43971247  0.49766167  0.21189299     0.93600
Al1092     Al  0.40718920  0.99204606  0.15609696     1.60400
O1093       O  0.00122136  0.98883125  0.15092503    -0.78200
C1094       C  0.39956556  0.97427242  0.09042850     0.97700
C1095       C  0.41373585  0.93834953  0.18727006     0.92600
O1096       O  0.43962702  0.94483111  0.19103497    -0.83500
O1097       O  0.47625976  0.60564910  0.39250323    -0.82900
C1098       C  0.37307707  0.54836707  0.36791054     0.96400
O1099       O  0.38678497  0.56553757  0.35109928    -0.72100
O1100       O  0.39492804  0.61733007  0.37451634    -0.75600
Al1101     Al  0.41902536  0.58927843  0.35676144     1.49000
C1102       C  0.40536219  0.63880382  0.38880065     0.91700
O1103       O  0.41835265  0.59580765  0.45168912    -0.81900
O1104       O  0.46205506  0.53219638  0.41562624    -0.75400
Al1105     Al  0.44644957  0.60019204  0.42105943     1.90100
O1106       O  0.41419570  0.54867756  0.44790403    -0.74500
O1107       O  0.43153157  0.52466855  0.36293134    -0.74300
O1108       O  0.38307302  0.54049156  0.39420499    -0.80000
O1109       O  0.44225344  0.56328071  0.33594729    -0.78200
O1110       O  0.42921669  0.57618126  0.39432788    -1.14300
O1111       O  0.44919476  0.61587999  0.35211709    -0.73500
C1112       C  0.47292252  0.61593699  0.36540603     0.97200
C1113       C  0.41262662  0.57189797  0.46385040     0.93600
Al1114     Al  0.42311353  0.53965510  0.40441319     1.55600
O1115       O  0.42680033  0.63532213  0.40661708    -0.78200
C1116       C  0.44108069  0.53652949  0.33833968     0.97700
C1117       C  0.47652612  0.54570826  0.43614241     0.92600
O1118       O  0.47036641  0.57171903  0.44198200    -0.83500
O1119       O  0.06505225  0.68125137  0.39059087    -0.82900
C1120       C  0.16700719  0.74154548  0.37520887     0.96400
O1121       O  0.15345599  0.72665492  0.35541153    -0.72100
O1122       O  0.14752948  0.67401507  0.37461314    -0.75600
Al1123     Al  0.12242127  0.70122455  0.35827101     1.49000
C1124       C  0.13751284  0.65137949  0.38613382     0.91700
O1125       O  0.12133790  0.69014849  0.45174127    -0.81900
O1126       O  0.07571282  0.75378928  0.42103484    -0.75400
Al1127     Al  0.09392995  0.68630392  0.42042722     1.90100
O1128       O  0.12343129  0.73755945  0.45246038    -0.74500
O1129       O  0.10649705  0.76490146  0.36873168    -0.74300
O1130       O  0.15557479  0.74831051  0.40131124    -0.80000
O1131       O  0.09854270  0.72638585  0.33927740    -0.78200
O1132       O  0.11060904  0.71216900  0.39643349    -1.14300
O1133       O  0.09366092  0.67336650  0.35044705    -0.73500
C1134       C  0.06956528  0.67205223  0.36288538     0.97200
C1135       C  0.12613331  0.71358964  0.46598100     0.93600
Al1136     Al  0.11513771  0.74823362  0.40974806     1.55600
O1137       O  0.11528335  0.65294238  0.40320952    -0.78200
C1138       C  0.09724737  0.75295110  0.34354533     0.97700
C1139       C  0.06190530  0.73895470  0.44070415     0.92600
O1140       O  0.06863852  0.71278245  0.44369714    -0.83500
O1141       O  0.33766001  0.84510265  0.27140953    -0.82900
C1142       C  0.36802459  0.75166947  0.34676182     0.96400
O1143       O  0.37255733  0.76066436  0.31902117    -0.72100
O1144       O  0.36270470  0.78993323  0.26515858    -0.75600
Al1145     Al  0.37334662  0.80074538  0.30770461     1.49000
C1146       C  0.33906217  0.78574656  0.25169996     0.91700
O1147       O  0.28064282  0.79815378  0.31412775    -0.81900
O1148       O  0.30074195  0.82727407  0.36620296    -0.75400
Al1149     Al  0.31199472  0.82018600  0.29569607     1.90100
O1150       O  0.30103149  0.77095798  0.34929701    -0.74500
O1151       O  0.35456044  0.82583883  0.37568356    -0.74300
O1152       O  0.35490031  0.76732754  0.36635427    -0.80000
O1153       O  0.39098997  0.81110483  0.34780494    -0.78200
O1154       O  0.33803777  0.80630603  0.32115918    -1.14300
O1155       O  0.37868001  0.83988122  0.29435391    -0.73500
C1156       C  0.36345489  0.85267732  0.27436722     0.97200
C1157       C  0.27919313  0.77807316  0.33420970     0.93600
Al1158     Al  0.32881096  0.79851158  0.36095173     1.55600
O1159       O  0.31626818  0.79018366  0.26628485    -0.78200
C1160       C  0.38075686  0.82308418  0.37235557     0.97700
C1161       C  0.29591793  0.84938618  0.35057636     0.92600
O1162       O  0.30504340  0.85199904  0.32275985    -0.83500
O1163       O  0.19258453  0.93859841  0.26798676    -0.82900
C1164       C  0.17834361  0.54293349  0.33405891     0.96400
O1165       O  0.16929149  0.53115655  0.30889499    -0.72100
O1166       O  0.17678554  0.49807754  0.25640364    -0.75600
Al1167     Al  0.16231481  0.98968766  0.29995572     1.49000
C1168       C  0.19991502  0.50057432  0.24100559     0.91700
O1169       O  0.25730565  0.98046818  0.30305683    -0.81900
O1170       O  0.23431652  0.96834449  0.35857390    -0.75400
Al1171     Al  0.22112337  0.96283253  0.28901773     1.90100
O1172       O  0.24202043  0.01937534  0.32570620    -0.74500
O1173       O  0.18466887  0.98506771  0.37216362    -0.74300
O1174       O  0.19627388  0.53046559  0.35080195    -0.80000
O1175       O  0.14649011  0.98563307  0.34232222    -0.78200
O1176       O  0.19808905  0.98479388  0.31197857    -1.14300
O1177       O  0.15386487  0.94924723  0.29270670    -0.73500
C1178       C  0.16665448  0.93345218  0.27290653     0.97200
C1179       C  0.26712315  0.50777741  0.31401392     0.93600
Al1180     Al  0.21203120  0.00091160  0.34706802     1.55600
O1181       O  0.21997034  0.98814232  0.25528620    -0.78200
C1182       C  0.15842323  0.98311526  0.36903391     0.97700
C1183       C  0.23220189  0.94262225  0.34896353     0.92600
O1184       O  0.22248576  0.93648049  0.32181050    -0.83500
C1185       C  0.28890761  0.89690980  0.37533633    -0.10300
C1186       C  0.27738220  0.87116834  0.36369513     0.05900
C1187       C  0.24792459  0.86827600  0.36027233    -0.04100
C1188       C  0.23116867  0.89243867  0.36236789    -0.08500
C1189       C  0.24370173  0.91928191  0.36739814     0.05000
C1190       C  0.27166874  0.92093959  0.37861589    -0.03500
Br1191     Br  0.28745399  0.95554027  0.39616620    -0.03200
H1192       H  0.31137416  0.89876519  0.37996583     0.08900
H1193       H  0.20915384  0.89085841  0.35532216     0.06900
Br1194     Br  0.22966951  0.83339879  0.34763527    -0.03700
C1195       C  0.20156491  0.75493452  0.33355045    -0.10300
C1196       C  0.19606836  0.75098816  0.36594350     0.05900
C1197       C  0.21872675  0.75423935  0.38736456    -0.04100
C1198       C  0.24594288  0.76120107  0.37613422    -0.08500
C1199       C  0.25119056  0.76587931  0.34373421     0.05000
C1200       C  0.22843488  0.76266047  0.32247389    -0.03500
Br1201     Br  0.23226628  0.76897350  0.27808246    -0.03200
H1202       H  0.18458574  0.75246681  0.31652653     0.08900
H1203       H  0.26289609  0.76414570  0.39309963     0.06900
Br1204     Br  0.21402774  0.74886898  0.43193201    -0.03700
C1205       C  0.15203001  0.57101837  0.37480739    -0.10300
C1206       C  0.16700299  0.57065077  0.34605161     0.05900
C1207       C  0.17325590  0.59682543  0.33164548    -0.04100
C1208       C  0.16452101  0.62267345  0.34591033    -0.08500
C1209       C  0.14932233  0.62326385  0.37477397     0.05000
C1210       C  0.14339489  0.59681851  0.38932433    -0.03500
Br1211     Br  0.12430002  0.59429336  0.42924246    -0.03200
H1212       H  0.14694389  0.55096830  0.38610130     0.08900
H1213       H  0.16919550  0.64244682  0.33380006     0.06900
Br1214     Br  0.19420166  0.59821620  0.29286982    -0.03700
C1215       C  0.02099465  0.61348964  0.34853566    -0.10300
C1216       C  0.49674306  0.62933544  0.35018508     0.05900
C1217       C  0.49655930  0.65886530  0.34408251    -0.04100
C1218       C  0.02166993  0.67307324  0.34349122    -0.08500
C1219       C  0.04679718  0.65776404  0.34647241     0.05000
C1220       C  0.04659248  0.62771855  0.34535302    -0.03500
Br1221     Br  0.08051592  0.60551870  0.34626730    -0.03200
H1222       H  0.02087265  0.59058934  0.35239229     0.08900
H1223       H  0.02205474  0.69631984  0.34397640     0.06900
Br1224     Br  0.46264754  0.68122107  0.34467353    -0.03700
C1225       C  0.38483305  0.67158413  0.34888062    -0.10300
C1226       C  0.39495713  0.66801438  0.37994954     0.05900
C1227       C  0.39651010  0.69254649  0.39983553    -0.04100
C1228       C  0.38777812  0.71946208  0.38859382    -0.08500
C1229       C  0.37808698  0.72291436  0.35728530     0.05000
C1230       C  0.37678167  0.69843850  0.33746663    -0.03500
Br1231     Br  0.36278750  0.69991358  0.29496473    -0.03200
H1232       H  0.38369671  0.65331506  0.33283948     0.08900
H1233       H  0.38874183  0.73789353  0.40442654     0.06900
Br1234     Br  0.40919860  0.69038632  0.44277217    -0.03700
C1235       C  0.31553580  0.49840184  0.33488772    -0.10300
C1236       C  0.29605432  0.51802006  0.32267078     0.05900
C1237       C  0.30249479  0.54750874  0.32511128    -0.04100
C1238       C  0.32714698  0.55686996  0.34074644    -0.08500
C1239       C  0.34571168  0.53736691  0.35489890     0.05000
C1240       C  0.33997109  0.50777317  0.35114670    -0.03500
Br1241     Br  0.36219731  0.97090519  0.36201375    -0.03200
H1242       H  0.30665197  0.97044151  0.33061455     0.08900
H1243       H  0.33187293  0.57962357  0.34184877     0.06900
Br1244     Br  0.27875431  0.57571392  0.30618250    -0.03700
C1245       C  0.41442199  0.90813094  0.23643438    -0.10300
C1246       C  0.40038228  0.91563679  0.20830642     0.05900
C1247       C  0.37368037  0.90244396  0.20268716    -0.04100
C1248       C  0.36204619  0.88276247  0.22454104    -0.08500
C1249       C  0.37612504  0.87537745  0.25276835     0.05000
C1250       C  0.40275843  0.88873865  0.25835052    -0.03500
Br1251     Br  0.42422124  0.88284137  0.29617754    -0.03200
H1252       H  0.43460121  0.91807110  0.24205447     0.08900
H1253       H  0.34187141  0.87277264  0.21902211     0.06900
Br1254     Br  0.35231200  0.90937131  0.16505997    -0.03700
C1255       C  0.46526052  0.52027478  0.25657213    -0.10300
C1256       C  0.44151068  0.50502675  0.24553333     0.05900
C1257       C  0.42105677  0.49525097  0.26730298    -0.04100
C1258       C  0.42376871  0.50248787  0.29911742    -0.08500
C1259       C  0.44605767  0.51997164  0.30956749     0.05000
C1260       C  0.46749679  0.52806871  0.28834677    -0.03500
Br1261     Br  0.50422907  0.03529230  0.31123027    -0.03200
H1262       H  0.48581658  0.02226834  0.24653365     0.08900
H1263       H  0.40695704  0.49660781  0.31522343     0.06900
Br1264     Br  0.38863151  0.47242107  0.25574056    -0.03700
C1265       C  0.21829584  0.52526015  0.15903059    -0.10300
C1266       C  0.19629283  0.51243375  0.14135612     0.05900
C1267       C  0.17815909  0.49266791  0.15600324    -0.04100
C1268       C  0.17948506  0.48948873  0.18872039    -0.08500
C1269       C  0.19917232  0.50524246  0.20689707     0.05000
C1270       C  0.21968172  0.52209516  0.19165796    -0.03500
Br1271     Br  0.24778664  0.54401125  0.21440552    -0.03200
H1272       H  0.23241162  0.54054647  0.14795027     0.08900
H1273       H  0.16482611  0.47492485  0.20007830     0.06900
Br1274     Br  0.14942936  0.47186610  0.13312946    -0.03700
C1275       C  0.08199884  0.52428232  0.12976058    -0.10300
C1276       C  0.08663716  0.52838886  0.09707717     0.05900
C1277       C  0.06340423  0.52472914  0.07647886    -0.04100
C1278       C  0.03655423  0.51777227  0.08867606    -0.08500
C1279       C  0.03202631  0.51386388  0.12128702     0.05000
C1280       C  0.05522695  0.51692948  0.14182079    -0.03500
Br1281     Br  0.05104427  0.51314254  0.18665988    -0.03200
H1282       H  0.09933902  0.52705055  0.14625983     0.08900
H1283       H  0.02881836  0.99590749  0.07744638     0.06900
Br1284     Br  0.08037827  0.99952697  0.04066517    -0.03700
C1285       C  0.11218950  0.87592317  0.24285890    -0.10300
C1286       C  0.12358780  0.86730124  0.21329737     0.05900
C1287       C  0.14914276  0.88105493  0.20402372    -0.04100
C1288       C  0.16259401  0.90164948  0.22394234    -0.08500
C1289       C  0.15139849  0.91008784  0.25358227     0.05000
C1290       C  0.12552074  0.89688555  0.26262184    -0.03500
Br1291     Br  0.10765826  0.90562396  0.30229391    -0.03200
H1292       H  0.09280801  0.86597546  0.25103583     0.08900
H1293       H  0.18188566  0.91170885  0.21564963     0.06900
Br1294     Br  0.16646178  0.87413557  0.16359050    -0.03700
C1295       C  0.10454861  0.78881004  0.26734272    -0.10300
C1296       C  0.08362179  0.77370127  0.25018896     0.05900
C1297       C  0.06282788  0.75819203  0.26660708    -0.04100
C1298       C  0.06460957  0.75623276  0.29940210    -0.08500
C1299       C  0.08740601  0.76870890  0.31612295     0.05000
C1300       C  0.10653348  0.78648429  0.30009690    -0.03500
Br1301     Br  0.13792688  0.80478261  0.32106754    -0.03200
H1302       H  0.11987569  0.80203142  0.25512953     0.08900
H1303       H  0.05009439  0.74197947  0.31146028     0.06900
Br1304     Br  0.03400338  0.73608452  0.24538601    -0.03700
C1305       C  0.00770605  0.87040126  0.09108291    -0.10300
C1306       C  0.03255405  0.87155061  0.10909926     0.05900
C1307       C  0.04449770  0.89809931  0.11821966    -0.04100
C1308       C  0.02912424  0.92278126  0.11339384    -0.08500
C1309       C  0.49931351  0.91811773  0.10098016     0.05000
C1310       C  0.48859041  0.89088865  0.09330846    -0.03500
Br1311     Br  0.44918277  0.88411706  0.08628082    -0.03200
H1312       H  0.49737306  0.84612512  0.09149469     0.08900
H1313       H  0.03677380  0.94291797  0.12338178     0.06900
Br1314     Br  0.07979363  0.90169951  0.14060992    -0.03700
C1315       C  0.11271948  0.69054967  0.12746417    -0.10300
C1316       C  0.11209090  0.71327218  0.10624253     0.05900
C1317       C  0.11776847  0.70720572  0.07388323    -0.04100
C1318       C  0.12626753  0.67966355  0.06415843    -0.08500
C1319       C  0.12754952  0.65706931  0.08557396     0.05000
C1320       C  0.11947525  0.66264373  0.11743759    -0.03500
Br1321     Br  0.11805340  0.63392158  0.14948345    -0.03200
H1322       H  0.10746734  0.69442859  0.15207736     0.08900
H1323       H  0.13198400  0.67588679  0.03965744     0.06900
Br1324     Br  0.11473437  0.73525307  0.04142448    -0.03700
C1325       C  0.31307391  0.76260854  0.17079317    -0.10300
C1326       C  0.33513288  0.77234978  0.15135025     0.05900
C1327       C  0.35740445  0.78838165  0.16501228    -0.04100
C1328       C  0.35854749  0.79206065  0.19785448    -0.08500
C1329       C  0.33789160  0.77971449  0.21747820     0.05000
C1330       C  0.31475836  0.76523181  0.20353555    -0.03500
Br1331     Br  0.28715784  0.74466377  0.22765532    -0.03200
H1332       H  0.29621808  0.74954629  0.16067530     0.08900
H1333       H  0.37590088  0.80429240  0.20810704     0.06900
Br1334     Br  0.38825797  0.80303372  0.14045223    -0.03700
C1335       C  0.25547821  0.61832398  0.12435835    -0.10300
C1336       C  0.23116919  0.63129241  0.11252828     0.05900
C1337       C  0.22979428  0.66123863  0.11039061    -0.04100
C1338       C  0.25440824  0.67725026  0.11396777    -0.08500
C1339       C  0.28006169  0.66345234  0.11951833     0.05000
C1340       C  0.27994319  0.63468617  0.12903270    -0.03500
Br1341     Br  0.31305356  0.61622701  0.14465971    -0.03200
H1342       H  0.25604692  0.59532771  0.12759074     0.08900
H1343       H  0.25424424  0.69974963  0.10787419     0.06900
Br1344     Br  0.19645650  0.68076416  0.09713520    -0.03700
C1345       C  0.44255963  0.75070410  0.13402244    -0.10300
C1346       C  0.43677758  0.74721924  0.10138176     0.05900
C1347       C  0.45917219  0.75214084  0.08000987    -0.04100
C1348       C  0.48596772  0.76088730  0.09131527    -0.08500
C1349       C  0.49140087  0.76522237  0.12387778     0.05000
C1350       C  0.46923708  0.75978297  0.14524053    -0.03500
Br1351     Br  0.97228181  0.76090545  0.19204841    -0.03200
H1352       H  0.42604675  0.74660677  0.15116898     0.08900
H1353       H  0.50269150  0.76468887  0.07433185     0.06900
Br1354     Br  0.45507623  0.74578637  0.03533740    -0.03700
C1355       C  0.36516016  0.59808862  0.09116064    -0.10300
C1356       C  0.38406571  0.62099190  0.08652237     0.05900
C1357       C  0.41291299  0.61710111  0.09420108    -0.04100
C1358       C  0.42200963  0.59098957  0.10670447    -0.08500
C1359       C  0.40269755  0.56879732  0.11297682     0.05000
C1360       C  0.37406202  0.57251324  0.10491129    -0.03500
Br1361     Br  0.34626924  0.54308964  0.11169217    -0.03200
H1362       H  0.34301279  0.60051037  0.08533311     0.08900
H1363       H  0.44428667  0.58797561  0.11155834     0.06900
Br1364     Br  0.44104423  0.64621063  0.08696358    -0.03700
C1365       C  0.35592844  0.72936581  0.94654061    -0.10300
C1366       C  0.36842074  0.70809365  0.96501247     0.05900
C1367       C  0.38234745  0.68507604  0.94996263    -0.04100
C1368       C  0.38658158  0.68569729  0.91734712    -0.08500
C1369       C  0.37715681  0.70894375  0.89942987     0.05000
C1370       C  0.35981180  0.72971181  0.91386317    -0.03500
Br1371     Br  0.34375413  0.76087579  0.89093928    -0.03200
H1372       H  0.34355996  0.74619475  0.95767226     0.08900
H1373       H  0.39991244  0.66953146  0.90644373     0.06900
Br1374     Br  0.39893322  0.65411955  0.97283787    -0.03700
C1375       C  0.13105831  0.59165541  0.91161731    -0.10300
C1376       C  0.14286183  0.56976218  0.89271091     0.05900
C1377       C  0.16203144  0.55069453  0.90643233    -0.04100
C1378       C  0.16510376  0.55063794  0.93934020    -0.08500
C1379       C  0.15010004  0.57012409  0.95863741     0.05000
C1380       C  0.13428137  0.59185419  0.94433577    -0.03500
Br1381     Br  0.11382322  0.62030381  0.96817187    -0.03200
H1382       H  0.11649601  0.60672145  0.90124748     0.08900
H1383       H  0.17906083  0.53513388  0.94991679     0.06900
Br1384     Br  0.18261544  0.52301302  0.88168202    -0.03700
C1385       C  0.02544503  0.66967686  0.86080343    -0.10300
C1386       C  0.49478158  0.66508512  0.86152112     0.05900
C1387       C  0.48414529  0.63716461  0.86424014    -0.04100
C1388       C  0.00404594  0.61379611  0.86261361    -0.08500
C1389       C  0.03276284  0.61887555  0.85656551     0.05000
C1390       C  0.04389911  0.64678954  0.85751659    -0.03500
Br1391     Br  0.08339631  0.65447432  0.85085838    -0.03200
H1392       H  0.03355899  0.69135609  0.85857806     0.08900
H1393       H  0.49432430  0.59268142  0.86124529     0.06900
Br1394     Br  0.44427501  0.62938908  0.86630971    -0.03700
C1395       C  0.23839197  0.75033424  0.96913667    -0.10300
C1396       C  0.23993432  0.77972907  0.96169732     0.05900
C1397       C  0.26220449  0.79577488  0.97612942    -0.04100
C1398       C  0.28143777  0.78275449  0.99725132    -0.08500
C1399       C  0.27946054  0.75350267  0.00523299     0.05000
C1400       C  0.25706225  0.73750693  0.99091998    -0.03500
Br1401     Br  0.24900174  0.69847682  0.00194440    -0.03200
H1402       H  0.22152954  0.73732276  0.95905130     0.08900
H1403       H  0.29852696  0.79564170  0.00703449     0.06900
Br1404     Br  0.26884935  0.83530087  0.96642646    -0.03700
C1405       C  0.13374879  0.84324690  0.01433651    -0.10300
C1406       C  0.14702046  0.81946644  0.00034672     0.05900
C1407       C  0.15752869  0.79768287  0.02008425    -0.04100
C1408       C  0.15276968  0.79903025  0.05257330    -0.08500
C1409       C  0.13652244  0.82096875  0.06581657     0.05000
C1410       C  0.12820234  0.84399811  0.04674008    -0.03500
Br1411     Br  0.10753278  0.87601370  0.06350846    -0.03200
H1412       H  0.12662670  0.86076709  0.99987380     0.08900
H1413       H  0.15914805  0.78114826  0.06696468     0.06900
Br1414     Br  0.17763017  0.76471112  0.00496411    -0.03700
C1415       C  0.04948412  0.77117274  0.82011070    -0.10300
C1416       C  0.02848912  0.76796700  0.84325209     0.05900
C1417       C  0.03604291  0.77374725  0.87520373    -0.04100
C1418       C  0.06404715  0.78105993  0.88329957    -0.08500
C1419       C  0.08518532  0.78399100  0.86025299     0.05000
C1420       C  0.07722559  0.77978657  0.82806955    -0.03500
Br1421     Br  0.10283834  0.78486197  0.79331476    -0.03200
H1422       H  0.04422217  0.76712127  0.79553030     0.08900
H1423       H  0.06925143  0.78476919  0.90795053     0.06900
Br1424     Br  0.00982312  0.77080701  0.90968709    -0.03700
C1425       C  0.13285753  0.93231042  0.89525772    -0.10300
C1426       C  0.13437286  0.90949184  0.87339316     0.05900
C1427       C  0.12734307  0.91512274  0.84136352    -0.04100
C1428       C  0.11955254  0.94276472  0.83212550    -0.08500
C1429       C  0.11764389  0.96542320  0.85402768     0.05000
C1430       C  0.12411874  0.95977422  0.88612892    -0.03500
Br1431     Br  0.12241572  0.98858642  0.91891872    -0.03200
H1432       H  0.13836789  0.92874088  0.91972389     0.08900
H1433       H  0.11459832  0.94648468  0.80753368     0.06900
Br1434     Br  0.12956943  0.88703426  0.80783974    -0.03700
C1435       C  0.27427284  0.99334224  0.98387818    -0.10300
C1436       C  0.28599670  0.51123846  0.95731891     0.05900
C1437       C  0.27748784  0.54040293  0.95631273    -0.04100
C1438       C  0.25636881  0.55104389  0.97702788    -0.08500
C1439       C  0.24306347  0.53373254  0.99984876     0.05000
C1440       C  0.25220581  0.50480547  0.00147125    -0.03500
Br1441     Br  0.24396348  0.98107831  0.04013399    -0.03200
H1442       H  0.28191192  0.97188589  0.98802665     0.08900
H1443       H  0.25019478  0.57325758  0.97500780     0.06900
Br1444     Br  0.29383897  0.56760084  0.92782780    -0.03700
C1445       C  0.37774670  0.94697898  0.01249581    -0.10300
C1446       C  0.37691912  0.97305139  0.99612689     0.05900
C1447       C  0.37709357  0.99917667  0.01367390    -0.04100
C1448       C  0.37961929  0.99853380  0.04636655    -0.08500
C1449       C  0.38269752  0.97259207  0.06202497     0.05000
C1450       C  0.38061135  0.94669795  0.04518825    -0.03500
Br1451     Br  0.38238420  0.91069556  0.06613753    -0.03200
H1452       H  0.37644372  0.92662509  0.99993524     0.08900
H1453       H  0.38217017  0.01860755  0.05929328     0.06900
Br1454     Br  0.37587178  0.03682530  0.99565914    -0.03700
C1455       C  0.26246211  0.91949634  0.84513262    -0.10300
C1456       C  0.28798184  0.90638878  0.85287267     0.05900
C1457       C  0.28928015  0.87652303  0.85634984    -0.04100
C1458       C  0.26453313  0.86062735  0.85592020    -0.08500
C1459       C  0.23861984  0.87432147  0.85282605     0.05000
C1460       C  0.23751959  0.90348585  0.84493911    -0.03500
Br1461     Br  0.20261907  0.92343666  0.83939087    -0.03200
H1462       H  0.26155930  0.94254790  0.84243806     0.08900
H1463       H  0.26523433  0.83811962  0.86192638     0.06900
Br1464     Br  0.32277322  0.85679149  0.86825402    -0.03700
C1465       C  0.44176570  0.51483410  0.82091752    -0.10300
C1466       C  0.43814429  0.00293608  0.85906503     0.05900
C1467       C  0.46016226  0.00738835  0.88113633    -0.04100
C1468       C  0.48814683  0.50960964  0.86078325    -0.08500
C1469       C  0.49264314  0.51920301  0.82972495     0.05000
C1470       C  0.46891201  0.52195698  0.80977246    -0.03500
Br1471     Br  0.47210719  0.53464430  0.76696735    -0.03200
H1472       H  0.42393701  0.51650796  0.80501246     0.08900
H1473       H  0.00571956  0.49080722  0.86521879     0.06900
Br1474     Br  0.45474582  0.00457884  0.92598439    -0.03700
C1475       C  0.39487263  0.85567522  0.89676397    -0.10300
C1476       C  0.39000305  0.87606931  0.87339549     0.05900
C1477       C  0.39175385  0.86698793  0.84127613    -0.04100
C1478       C  0.39795919  0.83840435  0.83336343    -0.08500
C1479       C  0.40301400  0.81796699  0.85660378     0.05000
C1480       C  0.40165333  0.82710779  0.88884702    -0.03500
Br1481     Br  0.40756730  0.80195239  0.92381942    -0.03200
H1482       H  0.39309226  0.86194360  0.92142930     0.08900
H1483       H  0.39883003  0.83213827  0.80863716     0.06900
Br1484     Br  0.38323018  0.89136953  0.80646432    -0.03700
C1485       C  0.40069307  0.62355098  0.71050726    -0.10300
C1486       C  0.37098924  0.62078936  0.70798971     0.05900
C1487       C  0.35474402  0.63890122  0.72831143    -0.04100
C1488       C  0.36799644  0.65865786  0.74951567    -0.08500
C1489       C  0.39769457  0.66151565  0.75185750     0.05000
C1490       C  0.41393465  0.64316730  0.73181486    -0.03500
Br1491     Br  0.45455871  0.64253192  0.73270888    -0.03200
H1492       H  0.41403002  0.60985934  0.69606400     0.08900
H1493       H  0.35470858  0.67227904  0.76409842     0.06900
Br1494     Br  0.31412789  0.63860130  0.72839637    -0.03700
C1495       C  0.41058579  0.55006676  0.54967691    -0.10300
C1496       C  0.39406725  0.57201046  0.56262604     0.05900
C1497       C  0.38639767  0.59534381  0.54379911    -0.04100
C1498       C  0.39263528  0.59488497  0.51165590    -0.08500
C1499       C  0.40643526  0.57132782  0.49783483     0.05000
C1500       C  0.41665326  0.54936093  0.51743975    -0.03500
Br1501     Br  0.43860499  0.51754575  0.50227117    -0.03200
H1502       H  0.41634713  0.53190413  0.56397135     0.08900
H1503       H  0.38577045  0.61254182  0.49722947     0.06900
Br1504     Br  0.36521126  0.62706623  0.56055985    -0.03700
C1505       C  0.30693175  0.51754626  0.79209180    -0.10300
C1506       C  0.32972711  0.52852915  0.80990852     0.05900
C1507       C  0.35228088  0.04219495  0.79705008    -0.04100
C1508       C  0.35182450  0.04613314  0.76446867    -0.08500
C1509       C  0.33071630  0.53083943  0.74382807     0.05000
C1510       C  0.30733855  0.51834204  0.75920670    -0.03500
Br1511     Br  0.27699835  0.49924226  0.73700393    -0.03200
H1512       H  0.29048750  0.50518014  0.80360722     0.08900
H1513       H  0.36776544  0.05976462  0.75384978     0.06900
Br1514     Br  0.38258686  0.05988061  0.82057812    -0.03700
C1515       C  0.12567753  0.65939329  0.71088273    -0.10300
C1516       C  0.15512846  0.65954872  0.70591659     0.05900
C1517       C  0.17086888  0.63753645  0.72061339    -0.04100
C1518       C  0.15746096  0.61742431  0.74054787    -0.08500
C1519       C  0.12807626  0.61782713  0.74630101     0.05000
C1520       C  0.11223095  0.63922169  0.73058243    -0.03500
Br1521     Br  0.07207867  0.64350428  0.73568240    -0.03200
H1522       H  0.11290862  0.67578188  0.70010444     0.08900
H1523       H  0.17017113  0.60088014  0.75111801     0.06900
Br1524     Br  0.21059043  0.63229382  0.71299997    -0.03700
C1525       C  0.15160546  0.69130706  0.54584979    -0.10300
C1526       C  0.13952296  0.71270002  0.56519485     0.05900
C1527       C  0.12008884  0.73191459  0.55219029    -0.04100
C1528       C  0.11611074  0.73189591  0.51954576    -0.08500
C1529       C  0.13123111  0.71290778  0.49988985     0.05000
C1530       C  0.14830804  0.69180596  0.51327399    -0.03500
Br1531     Br  0.17089425  0.66605304  0.48815960    -0.03200
H1532       H  0.16676519  0.67654237  0.55569726     0.08900
H1533       H  0.10167463  0.74719928  0.50939737     0.06900
Br1534     Br  0.10111697  0.76062810  0.57713471    -0.03700
C1535       C  0.21954665  0.76087630  0.76779875    -0.10300
C1536       C  0.19556670  0.75077983  0.75142407     0.05900
C1537       C  0.17171199  0.74152516  0.76904083    -0.04100
C1538       C  0.17117871  0.74539555  0.80169937    -0.08500
C1539       C  0.19357738  0.75903651  0.81726241     0.05000
C1540       C  0.21860922  0.76513845  0.80054944    -0.03500
Br1541     Br  0.25105871  0.78127995  0.82157631    -0.03200
H1542       H  0.23858338  0.76661955  0.75503041     0.08900
H1543       H  0.15184110  0.74063747  0.81445648     0.06900
Br1544     Br  0.13852058  0.72399545  0.75089297    -0.03700
C1545       C  0.28191317  0.63488544  0.57873908    -0.10300
C1546       C  0.27137669  0.61110127  0.59487467     0.05900
C1547       C  0.24295311  0.61053545  0.60461355    -0.04100
C1548       C  0.22759925  0.63565193  0.60443126    -0.08500
C1549       C  0.24052947  0.66112230  0.59492532     0.05000
C1550       C  0.26591455  0.65990396  0.57762803    -0.03500
Br1551     Br  0.28012493  0.69171685  0.55419915    -0.03200
H1552       H  0.30316734  0.63476734  0.56927399     0.08900
H1553       H  0.20705512  0.63609601  0.61585862     0.06900
Br1554     Br  0.22520377  0.57788768  0.62311246    -0.03700
C1555       C  0.51267741  0.79315179  0.48330118    -0.10300
C1556       C  0.49817586  0.77580424  0.50525964     0.05900
C1557       C  0.00277538  0.74623601  0.50414245    -0.04100
C1558       C  0.02313685  0.73489461  0.48268252    -0.08500
C1559       C  0.03881933  0.75229447  0.46175702     0.05000
C1560       C  0.03301285  0.78219570  0.46327382    -0.03500
Br1561     Br  0.54930887  0.80933228  0.43323314    -0.03200
H1562       H  0.50802743  0.81582954  0.48252829     0.08900
H1563       H  0.02661850  0.71197270  0.48237859     0.06900
Br1564     Br  0.98237404  0.71894088  0.52905998    -0.03700
C1565       C  0.39555530  0.84714035  0.45421959    -0.10300
C1566       C  0.40808796  0.82209909  0.46558092     0.05900
C1567       C  0.41826762  0.80145018  0.44369127    -0.04100
C1568       C  0.41322407  0.80478551  0.41150619    -0.08500
C1569       C  0.39774885  0.82813644  0.40069000     0.05000
C1570       C  0.39033066  0.85026061  0.42203413    -0.03500
Br1571     Br  0.37121554  0.88410785  0.40839905    -0.03200
H1572       H  0.38894841  0.86393456  0.47051125     0.08900
H1573       H  0.41897365  0.78758968  0.39528928     0.06900
Br1574     Br  0.43911171  0.76817437  0.45562858    -0.03700
C1575       C  0.46312175  0.77070198  0.67048310    -0.10300
C1576       C  0.44128481  0.75950351  0.65133157     0.05900
C1577       C  0.41997329  0.74280470  0.66537323    -0.04100
C1578       C  0.41890194  0.74055545  0.69823791    -0.08500
C1579       C  0.43899171  0.75460336  0.71751477     0.05000
C1580       C  0.46188354  0.76891429  0.70330221    -0.03500
Br1581     Br  0.49006014  0.78954456  0.72732529    -0.03200
H1582       H  0.47938007  0.78404249  0.66009093     0.08900
H1583       H  0.40206139  0.72803174  0.70879063     0.06900
Br1584     Br  0.39024490  0.72514963  0.64130795    -0.03700
C1585       C  0.32301564  0.80189005  0.61756408    -0.10300
C1586       C  0.33963985  0.78303917  0.59904673     0.05900
C1587       C  0.33026244  0.75442545  0.59510920    -0.04100
C1588       C  0.30553307  0.74513797  0.61047350    -0.08500
C1589       C  0.28872626  0.76418322  0.62821209     0.05000
C1590       C  0.29758741  0.79285483  0.63148004    -0.03500
Br1591     Br  0.27618538  0.81995538  0.65601796    -0.03200
H1592       H  0.32994706  0.82384698  0.62141593     0.08900
H1593       H  0.29884984  0.72304595  0.60780799     0.06900
Br1594     Br  0.35042734  0.72695147  0.56964222    -0.03700
C1595       C  0.39484268  0.91865442  0.62156632    -0.10300
C1596       C  0.39673872  0.91179743  0.58913334     0.05900
C1597       C  0.38958791  0.93284092  0.56718733    -0.04100
C1598       C  0.37958171  0.95963137  0.57781857    -0.08500
C1599       C  0.37702620  0.96648428  0.61040828     0.05000
C1600       C  0.38556559  0.94566297  0.63233176    -0.03500
Br1601     Br  0.38444239  0.95208136  0.67721992    -0.03200
H1602       H  0.40080231  0.90280792  0.63877633     0.08900
H1603       H  0.37367224  0.97520533  0.56030272     0.06900
Br1604     Br  0.39175485  0.92537808  0.52257630    -0.03700
C1605       C  0.50915612  0.54344780  0.48370553    -0.10300
C1606       C  0.49940946  0.53069943  0.45525157     0.05900
C1607       C  0.00937154  0.50315753  0.44903363    -0.04100
C1608       C  0.02880656  0.48928890  0.46925564    -0.08500
C1609       C  0.03890632  0.50210286  0.49756105     0.05000
C1610       C  0.02867734  0.53011209  0.50474463    -0.03500
Br1611     Br  0.53838058  0.55017012  0.54211722    -0.03200
H1612       H  0.50127428  0.56433184  0.49073483     0.08900
H1613       H  0.03656584  0.46834423  0.46226818     0.06900
Br1614     Br  0.99987832  0.48335902  0.41038184    -0.03700
C1615       C  0.10480999  0.53849307  0.68983259    -0.10300
C1616       C  0.08351741  0.52575129  0.70821520     0.05900
C1617       C  0.06060294  0.51187865  0.69313358    -0.04100
C1618       C  0.06137449  0.50764752  0.66052466    -0.08500
C1619       C  0.08459121  0.51715202  0.64268879     0.05000
C1620       C  0.10512685  0.53488045  0.65708735    -0.03500
Br1621     Br  0.13539022  0.55240097  0.63378145    -0.03200
H1622       H  0.12140149  0.55116340  0.70101407     0.08900
H1623       H  0.04641845  0.98572687  0.65783664     0.06900
Br1624     Br  0.02927601  0.49564176  0.71580229    -0.03700
C1625       C  0.14248992  0.99379695  0.45407248    -0.10300
C1626       C  0.13067716  0.96735003  0.46233566     0.05900
C1627       C  0.12385723  0.94729336  0.43791636    -0.04100
C1628       C  0.13027860  0.95374145  0.40632360    -0.08500
C1629       C  0.14292715  0.98000225  0.39871652     0.05000
C1630       C  0.14843906  0.00025241  0.42298838    -0.03500
Br1631     Br  0.18847297  0.52116416  0.42272886    -0.03200
H1632       H  0.16326744  0.49496942  0.47522773     0.08900
H1633       H  0.12674899  0.93770266  0.38795827     0.06900
Br1634     Br  0.10582004  0.91105597  0.44553893    -0.03700
C1635       C  0.48975412  0.90121167  0.61826031    -0.10300
C1636       C  0.49281184  0.87147589  0.62019937     0.05900
C1637       C  0.01851295  0.85966905  0.62439181    -0.04100
C1638       C  0.04212723  0.87657432  0.61869437    -0.08500
C1639       C  0.03854015  0.90511179  0.60990067     0.05000
C1640       C  0.01214783  0.91841584  0.61278607    -0.03500
Br1641     Br  0.00667691  0.95807458  0.60305961    -0.03200
H1642       H  0.46887541  0.91059515  0.61668919     0.08900
H1643       H  0.06277501  0.86664422  0.61730908     0.06900
Br1644     Br  0.02326262  0.81912183  0.62865075    -0.03700
C1645       C  0.22419716  0.00638538  0.64397940    -0.10300
C1646       C  0.24708695  0.50727974  0.61743980     0.05900
C1647       C  0.24010191  0.50121626  0.58543614    -0.04100
C1648       C  0.21244864  0.49329105  0.57709464    -0.08500
C1649       C  0.18947666  0.99393652  0.60301909     0.05000
C1650       C  0.19624764  0.99988835  0.63513972    -0.03500
Br1651     Br  0.16839696  0.00116045  0.66822523    -0.03200
H1652       H  0.22861731  0.01251687  0.66827687     0.08900
H1653       H  0.20752857  0.48935964  0.55240356     0.06900
Br1654     Br  0.26635674  0.50516184  0.55110297    -0.03700
C1655       C  0.14745493  0.86840970  0.61787522    -0.10300
C1656       C  0.14159995  0.87092403  0.58526686     0.05900
C1657       C  0.14561781  0.84674620  0.56563101    -0.04100
C1658       C  0.15516729  0.82095717  0.57865509    -0.08500
C1659       C  0.16065426  0.81836202  0.61136146     0.05000
C1660       C  0.15680339  0.84262753  0.63093140    -0.03500
Br1661     Br  0.16580436  0.84245607  0.67511975    -0.03200
H1662       H  0.14455375  0.88670221  0.63356978     0.08900
H1663       H  0.15830814  0.80268733  0.56298034     0.06900
Br1664     Br  0.14015919  0.84832962  0.52080410    -0.03700
O1665       O  0.56509357  0.45965262  0.51330705    -0.82900
C1666       C  0.66114617  0.48231324  0.58920929     0.96400
O1667       O  0.65223452  0.48815486  0.56185421    -0.72100
O1668       O  0.62271846  0.47975774  0.50901951    -0.75600
Al1669     Al  0.61289078  0.49155906  0.55062157     1.49000
C1670       C  0.62459365  0.45623685  0.49382537     0.91700
O1671       O  0.60631659  0.39697075  0.55484909    -0.81900
O1672       O  0.58215686  0.42006938  0.60697313    -0.75400
Al1673     Al  0.58752760  0.43133171  0.53680734     1.90100
O1674       O  0.63670443  0.41610924  0.58829961    -0.74500
O1675       O  0.58905999  0.47347330  0.61870294    -0.74300
O1676       O  0.64537322  0.46902954  0.60790776    -0.80000
O1677       O  0.60149554  0.01203277  0.59676231    -0.78200
O1678       O  0.60465551  0.45625097  0.56276236    -1.14300
O1679       O  0.57241560  0.00318948  0.54261962    -0.73500
C1680       C  0.56038052  0.48632014  0.51716898     0.97200
C1681       C  0.62663098  0.39418257  0.57453790     0.93600
Al1682     Al  0.61269271  0.44572106  0.60200671     1.55600
O1683       O  0.61631547  0.43292606  0.50567003    -0.78200
C1684       C  0.59192028  0.49998149  0.61507798     0.97700
C1685       C  0.55910028  0.41896065  0.59246444     0.92600
O1686       O  0.55667952  0.42814710  0.56476484    -0.83500
O1687       O  0.95971501  0.31341447  0.51492059    -0.82900
C1688       C  0.86460613  0.28763337  0.58879531     0.96400
O1689       O  0.87508196  0.27977375  0.56250708    -0.72100
O1690       O  0.90557349  0.28903837  0.50908003    -0.75600
Al1691     Al  0.91489678  0.27941666  0.55218487     1.49000
C1692       C  0.90302219  0.31251501  0.49449882     0.91700
O1693       O  0.91674339  0.37526948  0.55521556    -0.81900
O1694       O  0.94132918  0.35417944  0.60828757    -0.75400
Al1695     Al  0.93601601  0.34074762  0.53818904     1.90100
O1696       O  0.88637657  0.35725459  0.58854283    -0.74500
O1697       O  0.93394235  0.30165741  0.62140651    -0.74300
O1698       O  0.87825021  0.30428169  0.60689632    -0.80000
O1699       O  0.92385327  0.26314371  0.59310134    -0.78200
O1700       O  0.92018646  0.31595274  0.56426636    -1.14300
O1701       O  0.95414269  0.27332908  0.53994464    -0.73500
C1702       C  0.96737119  0.28778553  0.51944133     0.97200
C1703       C  0.89631603  0.37872790  0.57449889     0.93600
Al1704     Al  0.91065525  0.32807796  0.60289891     1.55600
O1705       O  0.90680639  0.33624078  0.50869263    -0.78200
C1706       C  0.93356476  0.27496696  0.61801587     0.97700
C1707       C  0.96436658  0.35525272  0.59346964     0.92600
O1708       O  0.96662983  0.34608644  0.56548604    -0.83500
O1709       O  0.72036039  0.17831138  0.63458820    -0.82900
C1710       C  0.66633340  0.28414589  0.62085875     0.96400
O1711       O  0.68464406  0.27251672  0.60363012    -0.72100
O1712       O  0.73571897  0.26161040  0.62529562    -0.75600
Al1713     Al  0.70700407  0.23931486  0.60527276     1.49000
C1714       C  0.75648158  0.24877750  0.63700628     0.91700
O1715       O  0.71502306  0.23406317  0.69891434    -0.81900
O1716       O  0.65096027  0.19091805  0.66401413    -0.75400
Al1717     Al  0.71770650  0.20684543  0.66600607     1.90100
O1718       O  0.66842635  0.23958466  0.69673938    -0.74500
O1719       O  0.64263389  0.22179102  0.61184699    -0.74300
O1720       O  0.65744947  0.27157665  0.64528006    -0.80000
O1721       O  0.68089852  0.21884540  0.58226734    -0.78200
O1722       O  0.69385889  0.22602940  0.64181303    -1.14300
O1723       O  0.73151857  0.20782082  0.59646186    -0.73500
C1724       C  0.72882815  0.18271490  0.60669936     0.97200
C1725       C  0.69170027  0.24049884  0.71195875     0.93600
Al1726     Al  0.65796590  0.23076303  0.65348276     1.55600
O1727       O  0.75245968  0.22546185  0.65140030    -0.78200
C1728       C  0.65480625  0.21548885  0.58590793     0.97700
C1729       C  0.66511751  0.17640820  0.68336764     0.92600
O1730       O  0.69074770  0.18280667  0.68744846    -0.83500
O1731       O  0.79825536  0.09651426  0.63289173    -0.82900
C1732       C  0.86113668  0.49364991  0.61726879     0.96400
O1733       O  0.85035955  0.00947915  0.59899751    -0.72100
O1734       O  0.79665188  0.01252837  0.61616704    -0.75600
Al1735     Al  0.82334820  0.03968100  0.60166981     1.49000
C1736       C  0.77424031  0.02101709  0.62941874     0.91700
O1737       O  0.80908656  0.04226471  0.69628065    -0.81900
O1738       O  0.87172343  0.08842259  0.66584252    -0.75400
Al1739     Al  0.80513286  0.06827874  0.66364096     1.90100
O1740       O  0.85559032  0.04053746  0.69730728    -0.74500
O1741       O  0.88483858  0.05642503  0.61482049    -0.74300
O1742       O  0.86778474  0.00742865  0.64646901    -0.80000
O1743       O  0.84815338  0.06610303  0.58477255    -0.78200
O1744       O  0.83190106  0.05199246  0.64048555    -1.14300
O1745       O  0.79421322  0.06634938  0.59300418    -0.73500
C1746       C  0.78897143  0.09013696  0.60573990     0.97200
C1747       C  0.83179755  0.03786603  0.71077698     0.93600
Al1748     Al  0.86706406  0.04837772  0.65492829     1.55600
O1749       O  0.77468742  0.04340834  0.64711479    -0.78200
C1750       C  0.87433424  0.06616799  0.58960849     0.97700
C1751       C  0.85588685  0.10299022  0.68404475     0.92600
O1752       O  0.82987529  0.09611133  0.68583967    -0.83500
O1753       O  0.80887436  0.43674496  0.89251226    -0.82900
C1754       C  0.90762734  0.49870466  0.86304494     0.96400
O1755       O  0.89187707  0.48516456  0.84390815    -0.72100
O1756       O  0.88788247  0.43159528  0.86267707    -0.75600
Al1757     Al  0.86087632  0.45921250  0.85096117     1.49000
C1758       C  0.88069859  0.40983747  0.87815653     0.91700
O1759       O  0.87108639  0.45128099  0.94558969    -0.81900
O1760       O  0.81836823  0.00784572  0.91466102    -0.75400
Al1761     Al  0.84072482  0.44493822  0.91762624     1.90100
O1762       O  0.86978284  0.49813814  0.94467019    -0.74500
O1763       O  0.84908007  0.01793694  0.86239409    -0.74300
O1764       O  0.89873347  0.50527621  0.89044827    -0.80000
O1765       O  0.83423519  0.48446676  0.83585506    -0.78200
O1766       O  0.85376108  0.47025728  0.89046405    -1.14300
O1767       O  0.83187622  0.43089463  0.84785068    -0.73500
C1768       C  0.81026731  0.42720193  0.86461479     0.97200
C1769       C  0.87403958  0.47522589  0.95947688     0.93600
Al1770     Al  0.85926333  0.50668212  0.90212481     1.55600
O1771       O  0.86171096  0.41209651  0.89948072    -0.78200
C1772       C  0.83617197  0.51121037  0.83823271     0.97700
C1773       C  0.80840405  0.49740144  0.93698762     0.92600
O1774       O  0.81657908  0.47180991  0.94136393    -0.83500
O1775       O  0.71674602  0.35338974  0.89085284    -0.82900
C1776       C  0.61729946  0.29016653  0.86656797     0.96400
O1777       O  0.63263518  0.30351762  0.84731681    -0.72100
O1778       O  0.63717817  0.35725672  0.86491062    -0.75600
Al1779     Al  0.66375447  0.32943031  0.85239565     1.49000
C1780       C  0.64489782  0.37981701  0.87915704     0.91700
O1781       O  0.65770134  0.34114545  0.94845694    -0.81900
O1782       O  0.70603898  0.27893823  0.91657613    -0.75400
Al1783     Al  0.68628301  0.34639985  0.91784294     1.90100
O1784       O  0.65789335  0.29417311  0.94701264    -0.74500
O1785       O  0.67549905  0.26632227  0.86365552    -0.74300
O1786       O  0.62677297  0.28493496  0.89398288    -0.80000
O1787       O  0.68988496  0.30333372  0.83643432    -0.78200
O1788       O  0.67208051  0.31998758  0.89183589    -1.14300
O1789       O  0.69250954  0.35768389  0.84711338    -0.73500
C1790       C  0.71468553  0.36167944  0.86283855     0.97200
C1791       C  0.65544429  0.31742601  0.96238417     0.93600
Al1792     Al  0.66678687  0.28403111  0.90427448     1.55600
O1793       O  0.66438992  0.37857493  0.90000236    -0.78200
C1794       C  0.68719694  0.27676848  0.83939871     0.97700
C1795       C  0.71923437  0.29468063  0.93656743     0.92600
O1796       O  0.71150598  0.32052742  0.94039864    -0.83500
O1797       O  0.58512083  0.08756638  0.76707084    -0.82900
C1798       C  0.60953215  0.49297303  0.83675971     0.96400
O1799       O  0.61557979  0.00277792  0.81724558    -0.72100
O1800       O  0.60722920  0.03152151  0.76268535    -0.75600
Al1801     Al  0.61820483  0.04267060  0.80499602     1.49000
C1802       C  0.58347814  0.02864181  0.74900016     0.91700
O1803       O  0.52510792  0.04669920  0.80950881    -0.81900
O1804       O  0.54638781  0.07358227  0.86112430    -0.75400
Al1805     Al  0.55825239  0.06536789  0.79146033     1.90100
O1806       O  0.54327384  0.01736582  0.84398680    -0.74500
O1807       O  0.59916397  0.06807254  0.87294822    -0.74300
O1808       O  0.59576928  0.01048404  0.86321142    -0.80000
O1809       O  0.63572962  0.05344709  0.84519582    -0.78200
O1810       O  0.58302739  0.05013323  0.81756796    -1.14300
O1811       O  0.62566815  0.08128979  0.79051832    -0.73500
C1812       C  0.61096131  0.09420183  0.77009980     0.97200
C1813       C  0.52216484  0.02647149  0.82900922     0.93600
Al1814     Al  0.57227902  0.04292175  0.85694014     1.55600
O1815       O  0.56069620  0.03448292  0.76301647    -0.78200
C1816       C  0.62541984  0.06577201  0.86951527     0.97700
C1817       C  0.54425740  0.09608925  0.84541466     0.92600
O1818       O  0.55405193  0.09784574  0.81782445    -0.83500
O1819       O  0.93740137  0.19581430  0.76617669    -0.82900
C1820       C  0.91532623  0.29393848  0.84083163     0.96400
O1821       O  0.90898444  0.28413957  0.81359154    -0.72100
O1822       O  0.91819356  0.25278391  0.76023109    -0.75600
Al1823     Al  0.90546806  0.24389752  0.80204133     1.49000
C1824       C  0.94219634  0.25351125  0.74677082     0.91700
O1825       O  0.99876141  0.23598826  0.81022167    -0.81900
O1826       O  0.97371186  0.21215262  0.86160059    -0.75400
Al1827     Al  0.96481107  0.21809378  0.79111905     1.90100
O1828       O  0.98137095  0.26739033  0.84384634    -0.74500
O1829       O  0.92156185  0.22168371  0.87121271    -0.74300
O1830       O  0.92850065  0.27837138  0.85974830    -0.80000
O1831       O  0.88628373  0.23540414  0.84141075    -0.78200
O1832       O  0.94009243  0.23573252  0.81599815    -1.14300
O1833       O  0.89666990  0.20488037  0.78802186    -0.73500
C1834       C  0.91115844  0.19044025  0.76824414     0.97200
C1835       C  0.50266167  0.25643534  0.82893194     0.93600
Al1836     Al  0.95012628  0.24426641  0.85559056     1.55600
O1837       O  0.96451988  0.24769459  0.76157262    -0.78200
C1838       C  0.89558337  0.22370987  0.86612868     0.97700
C1839       C  0.97489804  0.18887678  0.84642951     0.92600
O1840       O  0.96647155  0.18673845  0.81829376    -0.83500
O1841       O  0.81359066  0.21614854  0.01512051    -0.82900
C1842       C  0.91136272  0.24409178  0.08507249     0.96400
O1843       O  0.90074089  0.25008346  0.05850210    -0.72100
O1844       O  0.86886959  0.23871939  0.00667354    -0.75600
Al1845     Al  0.86065739  0.25107066  0.04905480     1.49000
C1846       C  0.87015311  0.21446431  0.99277516     0.91700
O1847       O  0.85646434  0.15604160  0.05573075    -0.81900
O1848       O  0.83374690  0.17945085  0.10897376    -0.75400
Al1849     Al  0.83717507  0.18961660  0.03838742     1.90100
O1850       O  0.88850545  0.17547561  0.08664528    -0.74500
O1851       O  0.84209303  0.23298018  0.11915956    -0.74300
O1852       O  0.89736865  0.22918460  0.10418348    -0.80000
O1853       O  0.85266158  0.26975186  0.08923135    -0.78200
O1854       O  0.85444364  0.21548736  0.06269701    -1.14300
O1855       O  0.82153070  0.25783465  0.03713998    -0.73500
C1856       C  0.80739942  0.24241350  0.01780879     0.97200
C1857       C  0.87823840  0.15355527  0.07310324     0.93600
Al1858     Al  0.86470059  0.20531100  0.10135123     1.55600
O1859       O  0.86528597  0.19153684  0.00732664    -0.78200
C1860       C  0.84280898  0.25946719  0.11453471     0.97700
C1861       C  0.81008604  0.17832866  0.09533601     0.92600
O1862       O  0.80740377  0.18648337  0.06724178    -0.83500
O1863       O  0.55758573  0.35138338  0.13863437    -0.82900
C1864       C  0.60728918  0.24305748  0.11880352     0.96400
O1865       O  0.59560933  0.25907760  0.09910662    -0.72100
O1866       O  0.54334373  0.27021338  0.11556425    -0.75600
Al1867     Al  0.57398322  0.29327353  0.10281638     1.49000
C1868       C  0.52225219  0.28086612  0.12951920     0.91700
O1869       O  0.56049315  0.29249815  0.19844723    -0.81900
O1870       O  0.62839320  0.33231994  0.16740390    -0.75400
Al1871     Al  0.55989062  0.32077652  0.16700153     1.90100
O1872       O  0.60660637  0.28657531  0.19857172    -0.74500
O1873       O  0.63743269  0.29910721  0.11540892    -0.74300
O1874       O  0.61293594  0.25278195  0.14628051    -0.80000
O1875       O  0.60284287  0.31601918  0.08665945    -0.78200
O1876       O  0.58407834  0.30218741  0.14222968    -1.14300
O1877       O  0.54995078  0.32491460  0.09633841    -0.73500
C1878       C  0.54838577  0.34845524  0.11091073     0.97200
C1879       C  0.58302229  0.28661836  0.21287958     0.93600
Al1880     Al  0.61847544  0.29323040  0.15583855     1.55600
O1881       O  0.52559153  0.30176971  0.14901931    -0.78200
C1882       C  0.62868107  0.31142177  0.09075102     0.97700
C1883       C  0.61476854  0.34827903  0.18649866     0.92600
O1884       O  0.58836137  0.34383859  0.18994971    -0.83500
O1885       O  0.71274946  0.07107284  0.01859798    -0.82900
C1886       C  0.61787658  0.04010568  0.09031151     0.96400
O1887       O  0.62712681  0.03615410  0.06244537    -0.72100
O1888       O  0.65811267  0.04638166  0.00947220    -0.75600
Al1889     Al  0.66689308  0.03462060  0.05191630     1.49000
C1890       C  0.65507022  0.07069772  0.99698799     0.91700
O1891       O  0.66526225  0.12795277  0.06208839    -0.81900
O1892       O  0.69363918  0.10685949  0.11383843    -0.75400
Al1893     Al  0.68763891  0.09684975  0.04283953     1.90100
O1894       O  0.63822398  0.10631291  0.09675708    -0.74500
O1895       O  0.69120290  0.05173673  0.12016042    -0.74300
O1896       O  0.63380199  0.05182661  0.11074936    -0.80000
O1897       O  0.67574317  0.01546648  0.09126805    -0.78200
O1898       O  0.67302605  0.06996784  0.06693717    -1.14300
O1899       O  0.70547953  0.02909978  0.03971288    -0.73500
C1900       C  0.71946516  0.04478107  0.02111492     0.97200
C1901       C  0.64524833  0.12870385  0.08236515     0.93600
Al1902     Al  0.66495306  0.07820734  0.10699446     1.55600
O1903       O  0.65897709  0.09330402  0.01282125    -0.78200
C1904       C  0.68839467  0.02522820  0.11560731     0.97700
C1905       C  0.71547222  0.11262195  0.09813653     0.92600
O1906       O  0.71837308  0.10349735  0.07025217    -0.83500
O1907       O  0.96843258  0.43421363  0.13558009    -0.82900
C1908       C  0.91662927  0.04353294  0.11882777     0.96400
O1909       O  0.93130552  0.02894785  0.09977468    -0.72100
O1910       O  0.98373562  0.02007038  0.11806680    -0.75600
Al1911     Al  0.95176935  0.49380550  0.10450443     1.49000
C1912       C  0.50430238  0.00800066  0.13218382     0.91700
O1913       O  0.96434670  0.49156748  0.19843508    -0.81900
O1914       O  0.89814044  0.44846503  0.16560407    -0.75400
Al1915     Al  0.96575532  0.46379115  0.16609309     1.90100
O1916       O  0.91849064  0.00189180  0.19780185    -0.74500
O1917       O  0.88788623  0.48365514  0.11582508    -0.74300
O1918       O  0.90990060  0.03350347  0.14552252    -0.80000
O1919       O  0.92379827  0.47171890  0.08546696    -0.78200
O1920       O  0.94109440  0.48242085  0.14266059    -1.14300
O1921       O  0.97633953  0.46271536  0.09559293    -0.73500
C1922       C  0.97839409  0.43870783  0.10846329     0.97200
C1923       C  0.94193260  0.00335454  0.21223656     0.93600
Al1924     Al  0.90598738  0.48864794  0.15668447     1.60400
O1925       O  0.49756169  0.48162576  0.14883026    -0.78200
C1926       C  0.89783948  0.47547397  0.08944160     0.97700
C1927       C  0.91255206  0.43355871  0.18453330     0.92600
O1928       O  0.93849054  0.43976438  0.18835030    -0.83500
O1929       O  0.97162419  0.10351205  0.39453932    -0.82900
C1930       C  0.87223222  0.04012103  0.36695583     0.96400
O1931       O  0.88746267  0.05464307  0.34868519    -0.72100
O1932       O  0.89124500  0.10786090  0.36859350    -0.75600
Al1933     Al  0.91813962  0.08057135  0.35536374     1.49000
C1934       C  0.89887832  0.13009550  0.38365542     0.91700
O1935       O  0.91109583  0.09080908  0.44969528    -0.81900
O1936       O  0.95914939  0.02841260  0.41877653    -0.75400
Al1937     Al  0.94046727  0.09595137  0.42103551     1.90100
O1938       O  0.91037045  0.04371162  0.44868930    -0.74500
O1939       O  0.93016136  0.01724241  0.36537174    -0.74300
O1940       O  0.88086156  0.03429277  0.39450015    -0.80000
O1941       O  0.94476545  0.05506824  0.33943899    -0.78200
O1942       O  0.92615579  0.07012193  0.39441444    -1.14300
O1943       O  0.94641639  0.10905001  0.35159608    -0.73500
C1944       C  0.96861686  0.11322870  0.36715476     0.97200
C1945       C  0.90702290  0.06732714  0.46326699     0.93600
Al1946     Al  0.92049975  0.03389445  0.40598209     1.55600
O1947       O  0.91888356  0.12859117  0.40384137    -0.78200
C1948       C  0.94195122  0.02842149  0.34159532     0.97700
C1949       C  0.97241799  0.04313830  0.43936836     0.92600
O1950       O  0.96515208  0.06913175  0.44407812    -0.83500
O1951       O  0.55956143  0.18466792  0.38479725    -0.82900
C1952       C  0.66327956  0.23993350  0.36724849     0.96400
O1953       O  0.64787472  0.22765324  0.34692278    -0.72100
O1954       O  0.63941680  0.17428111  0.36132220    -0.75600
Al1955     Al  0.61533428  0.20412803  0.34933916     1.49000
C1956       C  0.62956324  0.15185611  0.37346653     0.91700
O1957       O  0.61903986  0.18778585  0.44249076    -0.81900
O1958       O  0.57452710  0.25503052  0.41689983    -0.75400
Al1959     Al  0.58991383  0.18691498  0.41254158     1.90100
O1960       O  0.62193586  0.23494772  0.44631465    -0.74500
O1961       O  0.60561300  0.26798421  0.36508218    -0.74300
O1962       O  0.65342078  0.24570812  0.39445524    -0.80000
O1963       O  0.59213153  0.23227261  0.33406388    -0.78200
O1964       O  0.60642893  0.21317670  0.38901026    -1.14300
O1965       O  0.58444424  0.17861176  0.34145667    -0.73500
C1966       C  0.56137328  0.17728931  0.35613181     0.97200
C1967       C  0.62450710  0.21027026  0.45821424     0.93600
Al1968     Al  0.61348414  0.24813558  0.40445290     1.55600
O1969       O  0.60866245  0.15381939  0.39230772    -0.78200
C1970       C  0.59442808  0.25862969  0.33965769     0.97700
C1971       C  0.56029457  0.23956702  0.43565905     0.92600
O1972       O  0.56683949  0.21331749  0.43814096    -0.83500
O1973       O  0.83655183  0.33707264  0.26346566    -0.82900
C1974       C  0.86343024  0.24183728  0.33729126     0.96400
O1975       O  0.86883010  0.25096307  0.30974155    -0.72100
O1976       O  0.86049763  0.28222534  0.25642554    -0.75600
Al1977     Al  0.87088298  0.29145666  0.29941157     1.49000
C1978       C  0.83687315  0.27933621  0.24254074     0.91700
O1979       O  0.77803908  0.29120845  0.30442278    -0.81900
O1980       O  0.79834969  0.31879242  0.35714515    -0.75400
Al1981     Al  0.81012267  0.31242783  0.28681099     1.90100
O1982       O  0.79755736  0.26283414  0.33899315    -0.74500
O1983       O  0.85171385  0.31586737  0.36724022    -0.74300
O1984       O  0.85051551  0.25778542  0.35670510    -0.80000
O1985       O  0.88830964  0.30026446  0.34021856    -0.78200
O1986       O  0.83553539  0.29766140  0.31237010    -1.14300
O1987       O  0.87720272  0.33100824  0.28713296    -0.73500
C1988       C  0.86229386  0.34445169  0.26725280     0.97200
C1989       C  0.77598485  0.27098659  0.32419570     0.93600
Al1990     Al  0.82558684  0.28948367  0.35169738     1.55600
O1991       O  0.81409158  0.28257621  0.25742555    -0.78200
C1992       C  0.87784014  0.31216120  0.36469499     0.97700
C1993       C  0.79453143  0.34121634  0.34178356     0.92600
O1994       O  0.80379821  0.34388813  0.31406938    -0.83500
O1995       O  0.69727387  0.44280657  0.26211041    -0.82900
C1996       C  0.67350807  0.04434891  0.32459957     0.96400
O1997       O  0.66240183  0.02801601  0.30404695    -0.72100
O1998       O  0.67433687  0.99176087  0.25573687    -0.75600
Al1999     Al  0.66722400  0.49017035  0.30063902     1.49000
C2000       C  0.69805236  0.99264671  0.24114914     0.91700
O2001       O  0.76195987  0.48505192  0.29750466    -0.81900
O2002       O  0.74305981  0.46515300  0.35167963    -0.75400
Al2003     Al  0.72617348  0.46644319  0.28327283     1.90100
O2004       O  0.74545404  0.52006302  0.32658453    -0.74500
O2005       O  0.69300710  0.47507179  0.36930941    -0.74300
O2006       O  0.69372820  0.03605010  0.34119501    -0.80000
O2007       O  0.65333287  0.48315687  0.34397420    -0.78200
O2008       O  0.70345328  0.48474900  0.30996429    -1.14300
O2009       O  0.65948375  0.45009565  0.29031740    -0.73500
C2010       C  0.67183146  0.43623387  0.26837009     0.97200
C2011       C  0.76419641  0.00473968  0.31391061     0.93600
Al2012     Al  0.71795699  0.49681459  0.34639101     1.55600
O2013       O  0.72222088  0.49476265  0.25297729    -0.78200
C2014       C  0.66661841  0.47615705  0.36890033     0.97700
C2015       C  0.74004105  0.44045169  0.33958836     0.92600
O2016       O  0.73023153  0.43703829  0.31205899    -0.83500
C2017       C  0.79043913  0.38771287  0.36854683    -0.10300
C2018       C  0.77722860  0.36362135  0.35507487     0.05900
C2019       C  0.74824246  0.36396254  0.34809545    -0.04100
C2020       C  0.73417044  0.38981559  0.34904657    -0.08500
C2021       C  0.74908179  0.41506604  0.35615224     0.05000
C2022       C  0.77603851  0.41362821  0.37000457    -0.03500
Br2023     Br  0.79506743  0.44638838  0.38776224    -0.03200
H2024       H  0.81252029  0.38699275  0.37523839     0.08900
H2025       H  0.71278267  0.39073560  0.33987378     0.06900
Br2026     Br  0.72809815  0.33133938  0.33164618    -0.03700
C2027       C  0.69783636  0.25101696  0.32475825    -0.10300
C2028       C  0.69260411  0.24763810  0.35733732     0.05900
C2029       C  0.71560511  0.25017690  0.37839596    -0.04100
C2030       C  0.74280614  0.25608524  0.36666959    -0.08500
C2031       C  0.74775510  0.26017794  0.33415744     0.05000
C2032       C  0.72480889  0.25751668  0.31319044    -0.03500
Br2033     Br  0.72877651  0.26250782  0.26855116    -0.03200
H2034       H  0.68064568  0.24901562  0.30794523     0.08900
H2035       H  0.76006879  0.25856038  0.38332761     0.06900
Br2036     Br  0.71158714  0.24523284  0.42312270    -0.03700
C2037       C  0.63684704  0.07194118  0.35282719    -0.10300
C2038       C  0.66068104  0.07217483  0.33305967     0.05900
C2039       C  0.67459238  0.09827186  0.32764708    -0.04100
C2040       C  0.66467458  0.12356919  0.34192321    -0.08500
C2041       C  0.64092649  0.12358373  0.36226754     0.05000
C2042       C  0.62709081  0.09705848  0.36774378    -0.03500
Br2043     Br  0.59506334  0.09285882  0.39532342    -0.03200
H2044       H  0.62646173  0.05172337  0.35786642     0.08900
H2045       H  0.67561688  0.14342790  0.33674569     0.06900
Br2046     Br  0.70663205  0.10040433  0.30007588    -0.03700
C2047       C  0.51326558  0.11898948  0.33884096    -0.10300
C2048       C  0.99018154  0.13129727  0.35391680     0.05900
C2049       C  0.98784337  0.16123632  0.35632737    -0.04100
C2050       C  0.51107802  0.17791086  0.35075975    -0.08500
C2051       C  0.53640015  0.16504535  0.34150314     0.05000
C2052       C  0.53667552  0.13606358  0.33198524    -0.03500
Br2053     Br  0.56969688  0.11812836  0.31455053    -0.03200
H2054       H  0.51406806  0.09611247  0.33438000     0.08900
H2055       H  0.51084719  0.20042945  0.35751964     0.06900
Br2056     Br  0.95597707  0.18017222  0.37478501    -0.03700
C2057       C  0.88339369  0.16225830  0.34046132    -0.10300
C2058       C  0.88759162  0.15830690  0.37313088     0.05900
C2059       C  0.88346981  0.18193720  0.39361725    -0.04100
C2060       C  0.87592599  0.20870128  0.38130827    -0.08500
C2061       C  0.87235956  0.21286762  0.34847951     0.05000
C2062       C  0.87597275  0.18899107  0.32808895    -0.03500
Br2063     Br  0.86993006  0.19093210  0.28333523    -0.03200
H2064       H  0.88659384  0.14447285  0.32414023     0.08900
H2065       H  0.87292974  0.22647177  0.39769631     0.06900
Br2066     Br  0.88680617  0.17852623  0.43857161    -0.03700
C2067       C  0.81297720  0.99333634  0.33294938    -0.10300
C2068       C  0.79340652  0.01406210  0.32316080     0.05900
C2069       C  0.80056982  0.04329677  0.32776998    -0.04100
C2070       C  0.82584515  0.05111326  0.34300266    -0.08500
C2071       C  0.84438688  0.03039790  0.35460344     0.05000
C2072       C  0.83802169  0.00124177  0.34894604    -0.03500
Br2073     Br  0.86508874  0.47900297  0.36419737    -0.03200
H2074       H  0.81084147  0.47580764  0.33041866     0.08900
H2075       H  0.83115499  0.07365354  0.34572326     0.06900
Br2076     Br  0.77747370  0.07371542  0.31252174    -0.03700
C2077       C  0.91216753  0.40305621  0.23350321    -0.10300
C2078       C  0.89928224  0.41005593  0.20451631     0.05900
C2079       C  0.87382076  0.39532386  0.19680797    -0.04100
C2080       C  0.86219581  0.37466739  0.21754062    -0.08500
C2081       C  0.87507029  0.36783520  0.24667173     0.05000
C2082       C  0.90040226  0.38277255  0.25437788    -0.03500
Br2083     Br  0.91938780  0.37803074  0.29400013    -0.03200
H2084       H  0.93135002  0.41418496  0.24065218     0.08900
H2085       H  0.84303624  0.36347729  0.21043826     0.06900
Br2086     Br  0.85454637  0.40125854  0.15758592    -0.03700
C2087       C  0.96816473  0.01558755  0.26114040    -0.10300
C2088       C  0.94262853  0.00695945  0.24677047     0.05900
C2089       C  0.91970040  0.99829042  0.26608543    -0.04100
C2090       C  0.92206690  0.00064308  0.29875912    -0.08500
C2091       C  0.94647916  0.01213377  0.31265917     0.05000
C2092       C  0.97016023  0.01824435  0.29386657    -0.03500
Br2093     Br  0.00089484  0.54830675  0.30460651    -0.03200
H2094       H  0.98390588  0.52512091  0.24287449     0.08900
H2095       H  0.90356944  0.99642426  0.31313736     0.06900
Br2096     Br  0.88416940  0.98360895  0.25046722    -0.03700
C2097       C  0.71957580  0.01736176  0.16022102    -0.10300
C2098       C  0.69664559  0.00724167  0.14201826     0.05900
C2099       C  0.67657105  0.98884070  0.15583406    -0.04100
C2100       C  0.67759578  0.98420739  0.18830590    -0.08500
C2101       C  0.69844689  0.99753253  0.20710886     0.05000
C2102       C  0.72025124  0.01330843  0.19271016    -0.03500
Br2103     Br  0.74887200  0.03352978  0.21652775    -0.03200
H2104       H  0.73504020  0.03169479  0.14982833     0.08900
H2105       H  0.66151697  0.97084701  0.19907542     0.06900
Br2106     Br  0.64528220  0.97259974  0.13269759    -0.03700
C2107       C  0.58122826  0.03356342  0.13271069    -0.10300
C2108       C  0.58860662  0.03119114  0.10032238     0.05900
C2109       C  0.56760408  0.02104940  0.07903561    -0.04100
C2110       C  0.54033836  0.01443088  0.09013385    -0.08500
C2111       C  0.53320807  0.01694956  0.12231797     0.05000
C2112       C  0.55406752  0.02633590  0.14372563    -0.03500
Br2113     Br  0.54600603  0.03087980  0.18792091    -0.03200
H2114       H  0.59667145  0.04113027  0.14982887     0.08900
H2115       H  0.52029345  0.50236545  0.07180993     0.06900
Br2116     Br  0.56873605  0.51362895  0.03147682    -0.03700
C2117       C  0.61489839  0.38491311  0.23154522    -0.10300
C2118       C  0.62966940  0.37134595  0.20647975     0.05900
C2119       C  0.65852401  0.37932007  0.20265522    -0.04100
C2120       C  0.67142720  0.39975637  0.22319044    -0.08500
C2121       C  0.65672325  0.41322755  0.24839643     0.05000
C2122       C  0.62783115  0.40532945  0.25212517    -0.03500
Br2123     Br  0.60426164  0.42126246  0.28478092    -0.03200
H2124       H  0.59291657  0.37938381  0.23557320     0.08900
H2125       H  0.69339100  0.40529752  0.21907092     0.06900
Br2126     Br  0.68198046  0.36379656  0.16959394    -0.03700
C2127       C  0.60586754  0.29538683  0.26469574    -0.10300
C2128       C  0.58282317  0.28385739  0.24760412     0.05900
C2129       C  0.56001162  0.27188002  0.26439301    -0.04100
C2130       C  0.56185179  0.26902751  0.29708208    -0.08500
C2131       C  0.58654406  0.27703666  0.31343829     0.05000
C2132       C  0.60783218  0.29214710  0.29738881    -0.03500
Br2133     Br  0.64173407  0.30513938  0.31809333    -0.03200
H2134       H  0.62297036  0.30612279  0.25243781     0.08900
H2135       H  0.54547240  0.25703526  0.30918316     0.06900
Br2136     Br  0.52780367  0.25498238  0.24418432    -0.03700
C2137       C  0.50327901  0.36490314  0.09138404    -0.10300
C2138       C  0.53179059  0.37118971  0.09761960     0.05900
C2139       C  0.54142152  0.39969700  0.09860445    -0.04100
C2140       C  0.52202288  0.42161779  0.09569268    -0.08500
C2141       C  0.99730835  0.41775589  0.09508664     0.05000
C2142       C  0.98792800  0.38979892  0.08851103    -0.03500
Br2143     Br  0.94856661  0.38080766  0.08342470    -0.03200
H2144       H  0.99966740  0.34567234  0.08672202     0.08900
H2145       H  0.52920052  0.44358856  0.09903927     0.06900
Br2146     Br  0.57950369  0.41002536  0.10943667    -0.03700
C2147       C  0.61827994  0.19206016  0.13180397    -0.10300
C2148       C  0.61474111  0.21310391  0.10881088     0.05900
C2149       C  0.61857871  0.20492602  0.07655849    -0.04100
C2150       C  0.62765957  0.17721049  0.06848276    -0.08500
C2151       C  0.63198009  0.15651038  0.09154910     0.05000
C2152       C  0.62628230  0.16399506  0.12355171    -0.03500
Br2153     Br  0.63059846  0.13780949  0.15781643    -0.03200
H2154       H  0.61487079  0.19746560  0.15648817     0.08900
H2155       H  0.63167356  0.17185042  0.04389120     0.06900
Br2156     Br  0.61278918  0.23011430  0.04167604    -0.03700
C2157       C  0.81163070  0.26666540  0.15884447    -0.10300
C2158       C  0.83486061  0.27708845  0.14172576     0.05900
C2159       C  0.85641313  0.29214457  0.15778542    -0.04100
C2160       C  0.85683064  0.29224576  0.19074164    -0.08500
C2161       C  0.83583545  0.27766780  0.20791000     0.05000
C2162       C  0.81248189  0.26573872  0.19166980    -0.03500
Br2163     Br  0.78346561  0.24386505  0.21213524    -0.03200
H2164       H  0.79504569  0.25481796  0.14657904     0.08900
H2165       H  0.87399436  0.30321673  0.20293484     0.06900
Br2166     Br  0.88770416  0.30925897  0.13595481    -0.03700
C2167       C  0.76146015  0.12176248  0.12375611    -0.10300
C2168       C  0.73655987  0.13250849  0.11066865     0.05900
C2169       C  0.73499693  0.16159990  0.10263566    -0.04100
C2170       C  0.75932482  0.17824681  0.10306339    -0.08500
C2171       C  0.78527726  0.16607312  0.11073945     0.05000
C2172       C  0.78593393  0.13875404  0.12448793    -0.03500
Br2173     Br  0.81993346  0.12249735  0.14084468    -0.03200
H2174       H  0.76251985  0.09953657  0.13074799     0.08900
H2175       H  0.75858634  0.19968368  0.09350897     0.06900
Br2176     Br  0.70184974  0.17878817  0.08555749    -0.03700
C2177       C  0.94519680  0.25754077  0.12834565    -0.10300
C2178       C  0.93983634  0.25494343  0.09556700     0.05900
C2179       C  0.96187679  0.26222004  0.07456680    -0.04100
C2180       C  0.98837178  0.27102863  0.08648495    -0.08500
C2181       C  0.99363426  0.27346572  0.11922754     0.05000
C2182       C  0.97147199  0.26698494  0.14013831    -0.03500
Br2183     Br  0.48213391  0.25000549  0.18144396    -0.03200
H2184       H  0.92871119  0.25230528  0.14514535     0.08900
H2185       H  0.00507004  0.27619031  0.06990860     0.06900
Br2186     Br  0.95779756  0.25938676  0.02951430    -0.03700
C2187       C  0.87001288  0.10195959  0.08538436    -0.10300
C2188       C  0.88932775  0.12468964  0.08137553     0.05900
C2189       C  0.91793903  0.12019556  0.08960941    -0.04100
C2190       C  0.92634247  0.09392865  0.10248172    -0.08500
C2191       C  0.90660200  0.07195653  0.10824892     0.05000
C2192       C  0.87829060  0.07603942  0.09902127    -0.03500
Br2193     Br  0.85020206  0.04657035  0.10387969    -0.03200
H2194       H  0.84802511  0.10472480  0.07900651     0.08900
H2195       H  0.94845127  0.09061028  0.10798009     0.06900
Br2196     Br  0.94669549  0.14858886  0.08222685    -0.03700
C2197       C  0.86007711  0.23572494  0.94116111    -0.10300
C2198       C  0.87266376  0.21351400  0.95824484     0.05900
C2199       C  0.88444779  0.19006296  0.94174646    -0.04100
C2200       C  0.88632459  0.19089685  0.90890507    -0.08500
C2201       C  0.87751250  0.21519728  0.89235369     0.05000
C2202       C  0.86212044  0.23653508  0.90834796    -0.03500
Br2203     Br  0.84702130  0.26916911  0.88714302    -0.03200
H2204       H  0.84918140  0.25296823  0.95342271     0.08900
H2205       H  0.89825069  0.17434326  0.89668927     0.06900
Br2206     Br  0.90168573  0.15827731  0.96256379    -0.03700
C2207       C  0.63095735  0.09573871  0.91693446    -0.10300
C2208       C  0.64247712  0.07432744  0.89712510     0.05900
C2209       C  0.66218570  0.05518355  0.90979028    -0.04100
C2210       C  0.66566950  0.05416534  0.94256320    -0.08500
C2211       C  0.65071866  0.07288633  0.96275060     0.05000
C2212       C  0.63481462  0.09513276  0.94954866    -0.03500
Br2213     Br  0.61531603  0.12337054  0.97472659    -0.03200
H2214       H  0.61624558  0.11108750  0.90737797     0.08900
H2215       H  0.67987738  0.03845496  0.95234039     0.06900
Br2216     Br  0.68299107  0.02850901  0.88393360    -0.03700
C2217       C  0.51989402  0.16972347  0.86307498    -0.10300
C2218       C  0.98987621  0.16515523  0.85971851     0.05900
C2219       C  0.97805249  0.13753948  0.85850628    -0.04100
C2220       C  0.49764487  0.11427589  0.85750398    -0.08500
C2221       C  0.52691141  0.11898862  0.85743333     0.05000
C2222       C  0.53817807  0.14657168  0.86186414    -0.03500
Br2223     Br  0.57821592  0.15361628  0.86217279    -0.03200
H2224       H  0.52863815  0.19127695  0.86366343     0.08900
H2225       H  0.98719335  0.09277989  0.85494039     0.06900
Br2226     Br  0.93825961  0.13125839  0.85218191    -0.03700
C2227       C  0.75019800  0.25321824  0.95297570    -0.10300
C2228       C  0.74271685  0.28225310  0.95691861     0.05900
C2229       C  0.75676696  0.29779916  0.98160744    -0.04100
C2230       C  0.77710226  0.28442173  0.00096065    -0.08500
C2231       C  0.78442513  0.25531509  0.99711957     0.05000
C2232       C  0.77046036  0.23984003  0.97232982    -0.03500
Br2233     Br  0.77772638  0.20021497  0.96255309    -0.03200
H2234       H  0.73998645  0.24047237  0.93464007     0.08900
H2235       H  0.78733072  0.29712281  0.01932299     0.06900
Br2236     Br  0.74951601  0.33747232  0.99110470    -0.03700
C2237       C  0.64659365  0.34208659  0.01392078    -0.10300
C2238       C  0.65336549  0.31676901  0.99732722     0.05900
C2239       C  0.66101142  0.29225931  0.01498113    -0.04100
C2240       C  0.65747413  0.29242028  0.04776687    -0.08500
C2241       C  0.64687682  0.31656865  0.06345247     0.05000
C2242       C  0.64381799  0.34213326  0.04674130    -0.03500
Br2243     Br  0.63472623  0.37719339  0.06813838    -0.03200
H2244       H  0.64279472  0.36177626  0.00138756     0.08900
H2245       H  0.66053255  0.27274999  0.06062548     0.06900
Br2246     Br  0.67646058  0.25766159  0.99690497    -0.03700
C2247       C  0.55237056  0.27057696  0.81562397    -0.10300
C2248       C  0.53167306  0.26576435  0.83863479     0.05900
C2249       C  0.53953720  0.26849136  0.87087639    -0.04100
C2250       C  0.56744016  0.27572385  0.87931830    -0.08500
C2251       C  0.58815359  0.28110827  0.85635331     0.05000
C2252       C  0.58009001  0.27868499  0.82397847    -0.03500
Br2253     Br  0.60536036  0.28570269  0.78929428    -0.03200
H2254       H  0.54682130  0.26840934  0.79086259     0.08900
H2255       H  0.57284055  0.27753015  0.90414075     0.06900
Br2256     Br  0.51378722  0.26126289  0.90496661    -0.03700
C2257       C  0.63200805  0.43113595  0.89006022    -0.10300
C2258       C  0.63341107  0.40803073  0.86861229     0.05900
C2259       C  0.62636237  0.41323851  0.83645834    -0.04100
C2260       C  0.61957402  0.44099286  0.82654960    -0.08500
C2261       C  0.61819493  0.46403113  0.84800695     0.05000
C2262       C  0.62378746  0.45856086  0.88038080    -0.03500
Br2263     Br  0.62113054  0.48739744  0.91306496    -0.03200
H2264       H  0.63720514  0.42782189  0.91466158     0.08900
H2265       H  0.61479260  0.44447455  0.80187004     0.06900
Br2266     Br  0.62670409  0.38427071  0.80374382    -0.03700
C2267       C  0.77353302  0.49323202  0.98227025    -0.10300
C2268       C  0.78329587  0.00760608  0.95684151     0.05900
C2269       C  0.77436607  0.03653022  0.95437962    -0.04100
C2270       C  0.75431043  0.04809061  0.97576532    -0.08500
C2271       C  0.74259873  0.03191714  0.00055246     0.05000
C2272       C  0.75212239  0.00324111  0.00347255    -0.03500
Br2273     Br  0.74037673  0.47811273  0.03573406    -0.03200
H2274       H  0.78099539  0.47156588  0.98545688     0.08900
H2275       H  0.74764166  0.07004002  0.97267923     0.06900
Br2276     Br  0.78850964  0.06204555  0.92274984    -0.03700
C2277       C  0.87644714  0.45005758  0.01066868    -0.10300
C2278       C  0.87798619  0.47609836  0.99419379     0.05900
C2279       C  0.87932100  0.50213345  0.01186044    -0.04100
C2280       C  0.88052200  0.50135429  0.04476563    -0.08500
C2281       C  0.88118906  0.47525207  0.06065737     0.05000
C2282       C  0.87809559  0.44958050  0.04354748    -0.03500
Br2283     Br  0.87806333  0.41343305  0.06447310    -0.03200
H2284       H  0.87430658  0.42981408  0.99803216     0.08900
H2285       H  0.88405020  0.52122174  0.05781150     0.06900
Br2286     Br  0.88181637  0.53961889  0.99356438    -0.03700
C2287       C  0.76123805  0.42327064  0.84691921    -0.10300
C2288       C  0.78713184  0.40999137  0.85251085     0.05900
C2289       C  0.78908540  0.37997311  0.85243219    -0.04100
C2290       C  0.76455091  0.36366093  0.85084827    -0.08500
C2291       C  0.73831712  0.37709584  0.84953342     0.05000
C2292       C  0.73662954  0.40682747  0.84500594    -0.03500
Br2293     Br  0.70127937  0.42632804  0.84129419    -0.03200
H2294       H  0.75990103  0.44645599  0.84665198     0.08900
H2295       H  0.76572425  0.34071239  0.85432194     0.06900
Br2296     Br  0.82366208  0.36022819  0.86017458    -0.03700
C2297       C  0.94240924  0.00426236  0.82533351    -0.10300
C2298       C  0.93655554  0.50658068  0.85253251     0.05900
C2299       C  0.96061600  0.49412267  0.86592108    -0.04100
C2300       C  0.98526689  0.01449441  0.86910700    -0.08500
C2301       C  0.99130139  0.01684279  0.83669223     0.05000
C2302       C  0.96937976  0.01221431  0.81475046    -0.03500
Br2303     Br  0.97511953  0.01587310  0.77015775    -0.03200
H2304       H  0.92598119  0.00032653  0.80794291     0.08900
H2305       H  0.50411826  0.01729298  0.88777357     0.06900
Br2306     Br  0.95740176  0.46714427  0.89955306    -0.03700
C2307       C  0.89721171  0.36046299  0.89178435    -0.10300
C2308       C  0.89213330  0.38109032  0.86872882     0.05900
C2309       C  0.89508550  0.37270986  0.83648552    -0.04100
C2310       C  0.90238103  0.34446924  0.82817403    -0.08500
C2311       C  0.90752873  0.32379116  0.85114316     0.05000
C2312       C  0.90523220  0.33233604  0.88349439    -0.03500
Br2313     Br  0.91152819  0.30689122  0.91812373    -0.03200
H2314       H  0.89472592  0.36621636  0.91651808     0.08900
H2315       H  0.90400116  0.33864732  0.80336985     0.06900
Br2316     Br  0.88713363  0.39761861  0.80192641    -0.03700
C2317       C  0.89757686  0.13412782  0.70097864    -0.10300
C2318       C  0.86873352  0.12690912  0.70469848     0.05900
C2319       C  0.85412543  0.14114594  0.72975884    -0.04100
C2320       C  0.86824700  0.16117107  0.74990891    -0.08500
C2321       C  0.89722673  0.16803936  0.74642558     0.05000
C2322       C  0.91167197  0.15411767  0.72100385    -0.03500
Br2323     Br  0.95080555  0.16110821  0.71120758    -0.03200
H2324       H  0.90964269  0.12387374  0.68227467     0.08900
H2325       H  0.85626755  0.17143481  0.76867368     0.06900
Br2326     Br  0.81487535  0.13421097  0.73872465    -0.03700
C2327       C  0.90708200  0.04936110  0.55006041    -0.10300
C2328       C  0.89172060  0.07241997  0.56237494     0.05900
C2329       C  0.88391442  0.09498305  0.54264525    -0.04100
C2330       C  0.88872525  0.09268482  0.51032719    -0.08500
C2331       C  0.90138157  0.06806845  0.49730251     0.05000
C2332       C  0.91171614  0.04674608  0.51768478    -0.03500
Br2333     Br  0.93175376  0.01319038  0.50366438    -0.03200
H2334       H  0.91278341  0.03172712  0.56517304     0.08900
H2335       H  0.88179271  0.10986111  0.49525334     0.06900
Br2336     Br  0.86428855  0.12800605  0.55866543    -0.03700
C2337       C  0.80879402  0.01312858  0.79137769    -0.10300
C2338       C  0.83150749  0.02315837  0.80990971     0.05900
C2339       C  0.84578228  0.54674074  0.79629866    -0.04100
C2340       C  0.84637548  0.54869732  0.76343672    -0.08500
C2341       C  0.83069191  0.03275595  0.74477472     0.05000
C2342       C  0.80823579  0.01767384  0.75895057    -0.03500
Br2343     Br  0.77807612  0.99989751  0.73518838    -0.03200
H2344       H  0.79286084  0.99927984  0.80168260     0.08900
H2345       H  0.86177767  0.56276498  0.75253316     0.06900
Br2346     Br  0.87217287  0.56963696  0.82024345    -0.03700
C2347       C  0.62186989  0.15364056  0.70808530    -0.10300
C2348       C  0.65138107  0.15348955  0.70343994     0.05900
C2349       C  0.66717966  0.13326777  0.72087011    -0.04100
C2350       C  0.65374044  0.11505250  0.74271354    -0.08500
C2351       C  0.62432719  0.11568589  0.74794713     0.05000
C2352       C  0.60839936  0.13533095  0.72984389    -0.03500
Br2353     Br  0.56822060  0.13974886  0.73446604    -0.03200
H2354       H  0.60911254  0.16892224  0.69548455     0.08900
H2355       H  0.66650390  0.09975705  0.75528748     0.06900
Br2356     Br  0.70715484  0.12803429  0.71519298    -0.03700
C2357       C  0.65395952  0.18767032  0.53659583    -0.10300
C2358       C  0.63956669  0.20651731  0.55729878     0.05900
C2359       C  0.61776028  0.22361650  0.54544140    -0.04100
C2360       C  0.61320296  0.22432134  0.51289509    -0.08500
C2361       C  0.62985985  0.20790491  0.49204801     0.05000
C2362       C  0.64944983  0.18844438  0.50408024    -0.03500
Br2363     Br  0.67308009  0.16545058  0.47700734    -0.03200
H2364       H  0.67097399  0.17452956  0.54543808     0.08900
H2365       H  0.59704048  0.23832629  0.50372522     0.06900
Br2366     Br  0.59599948  0.24889019  0.57192022    -0.03700
C2367       C  0.71589667  0.25905717  0.76006114    -0.10300
C2368       C  0.69163737  0.24675985  0.74617712     0.05900
C2369       C  0.66898552  0.23816750  0.76588660    -0.04100
C2370       C  0.66999681  0.24430810  0.79820728    -0.08500
C2371       C  0.69292388  0.25934993  0.81126646     0.05000
C2372       C  0.71659861  0.26549150  0.79234030    -0.03500
Br2373     Br  0.74959876  0.28413960  0.80950607    -0.03200
H2374       H  0.73400587  0.26460405  0.74561747     0.08900
H2375       H  0.65161251  0.23964977  0.81263704     0.06900
Br2376     Br  0.63588635  0.21817542  0.75083445    -0.03700
C2377       C  0.78086299  0.13382298  0.57548793    -0.10300
C2378       C  0.76984581  0.10957109  0.59028346     0.05900
C2379       C  0.74065966  0.10760473  0.59630593    -0.04100
C2380       C  0.72445492  0.13210512  0.59468291    -0.08500
C2381       C  0.73747829  0.15814513  0.58754883     0.05000
C2382       C  0.76404529  0.15806587  0.57268306    -0.03500
Br2383     Br  0.77865903  0.19066805  0.55095126    -0.03200
H2384       H  0.80285795  0.13470572  0.56853952     0.08900
H2385       H  0.70308489  0.13172936  0.60402670     0.06900
Br2386     Br  0.72263615  0.07415970  0.61236702    -0.03700
C2387       C  0.00282478  0.29156890  0.47462210    -0.10300
C2388       C  0.99115251  0.27505373  0.49923623     0.05900
C2389       C  0.50649043  0.24805977  0.50401318    -0.04100
C2390       C  0.52755668  0.23716476  0.48329167    -0.08500
C2391       C  0.53672040  0.25207060  0.45622393     0.05000
C2392       C  0.52360605  0.27877813  0.45050126    -0.03500
Br2393     Br  0.03653737  0.30659983  0.42158805    -0.03200
H2394       H  0.99509952  0.31306105  0.47090838     0.08900
H2395       H  0.53718626  0.21683703  0.48881090     0.06900
Br2396     Br  0.49744917  0.22531072  0.54012687    -0.03700
C2397       C  0.89052367  0.33832208  0.44577944    -0.10300
C2398       C  0.89923454  0.31270412  0.45982350     0.05900
C2399       C  0.90784122  0.28959466  0.43996928    -0.04100
C2400       C  0.90519230  0.29176490  0.40722086    -0.08500
C2401       C  0.89395512  0.31640903  0.39373048     0.05000
C2402       C  0.88802459  0.34031989  0.41309519    -0.03500
Br2403     Br  0.87422600  0.37536716  0.39576579    -0.03200
H2404       H  0.88504147  0.35679605  0.46027158     0.08900
H2405       H  0.90942141  0.27307725  0.39248164     0.06900
Br2406     Br  0.92327978  0.25432442  0.45510414    -0.03700
C2407       C  0.96503032  0.27006014  0.66319619    -0.10300
C2408       C  0.94178259  0.25904376  0.64607417     0.05900
C2409       C  0.92116404  0.24294600  0.66203444    -0.04100
C2410       C  0.92190720  0.24161840  0.69485941    -0.08500
C2411       C  0.94323450  0.25575118  0.71225502     0.05000
C2412       C  0.96585301  0.26869060  0.69611891    -0.03500
Br2413     Br  0.99639069  0.28788643  0.71769631    -0.03200
H2414       H  0.98094246  0.28271865  0.65123926     0.08900
H2415       H  0.90528182  0.22995735  0.70691692     0.06900
Br2416     Br  0.88946806  0.22559138  0.64107698    -0.03700
C2417       C  0.81990699  0.29598333  0.61876586    -0.10300
C2418       C  0.83651622  0.27730695  0.60005391     0.05900
C2419       C  0.82746970  0.24855860  0.59628099    -0.04100
C2420       C  0.80264121  0.23917434  0.61131210    -0.08500
C2421       C  0.78543656  0.25824227  0.62851428     0.05000
C2422       C  0.79438852  0.28683184  0.63238406    -0.03500
Br2423     Br  0.77296264  0.31363412  0.65729004    -0.03200
H2424       H  0.82673376  0.31796448  0.62267406     0.08900
H2425       H  0.79610277  0.21702766  0.60858525     0.06900
Br2426     Br  0.84819855  0.22100669  0.57146253    -0.03700
C2427       C  0.88377421  0.41423472  0.61710825    -0.10300
C2428       C  0.88666745  0.40808415  0.58452973     0.05900
C2429       C  0.88166749  0.43036585  0.56320753    -0.04100
C2430       C  0.87363440  0.45772379  0.57449103    -0.08500
C2431       C  0.87082184  0.46407779  0.60718956     0.05000
C2432       C  0.87628531  0.44170910  0.62852286    -0.03500
Br2433     Br  0.87327874  0.44673017  0.67348237    -0.03200
H2434       H  0.88789621  0.39755112  0.63402406     0.08900
H2435       H  0.86961752  0.47422574  0.55734200     0.06900
Br2436     Br  0.88409091  0.42410470  0.51840162    -0.03700
C2437       C  0.00458832  0.04318634  0.48766274    -0.10300
C2438       C  0.99529455  0.02937589  0.45956938     0.05900
C2439       C  0.50419074  0.99982180  0.45524717    -0.04100
C2440       C  0.52414107  0.98768258  0.47599082    -0.08500
C2441       C  0.53602583  0.00311926  0.50171041     0.05000
C2442       C  0.52682857  0.03190815  0.50598180    -0.03500
Br2443     Br  0.03348114  0.05193801  0.54617200    -0.03200
H2444       H  0.99609082  0.06400323  0.49394849     0.08900
H2445       H  0.53066634  0.96578077  0.47155377     0.06900
Br2446     Br  0.49101314  0.97517372  0.42153038    -0.03700
C2447       C  0.59993893  0.03993715  0.69547073    -0.10300
C2448       C  0.58250236  0.02321503  0.71493576     0.05900
C2449       C  0.56228432  0.00478896  0.70120048    -0.04100
C2450       C  0.56173798  0.00120687  0.66850783    -0.08500
C2451       C  0.58162330  0.01521618  0.64918689     0.05000
C2452       C  0.59935467  0.03641156  0.66266107    -0.03500
Br2453     Br  0.62473563  0.05942362  0.63803771    -0.03200
H2454       H  0.61426163  0.05566035  0.70587348     0.08900
H2455       H  0.54515267  0.49483207  0.64968495     0.06900
Br2456     Br  0.53744270  0.98143034  0.72602075    -0.03700
C2457       C  0.65641857  0.47867659  0.45656005    -0.10300
C2458       C  0.63596793  0.45761387  0.46152759     0.05900
C2459       C  0.62401894  0.44295417  0.43515901    -0.04100
C2460       C  0.63278891  0.45003861  0.40436765    -0.08500
C2461       C  0.65307686  0.47170417  0.39976812     0.05000
C2462       C  0.66468846  0.48608507  0.42648842    -0.03500
Br2463     Br  0.66817609  0.03730012  0.41493333    -0.03200
H2464       H  0.64922399  0.01090068  0.47173761     0.08900
H2465       H  0.62426891  0.43830961  0.38422008     0.06900
Br2466     Br  0.59513934  0.41421588  0.43962643    -0.03700
C2467       C  0.98603060  0.39996282  0.60992179    -0.10300
C2468       C  0.98815716  0.37015785  0.60714613     0.05900
C2469       C  0.51495508  0.35664327  0.60921281    -0.04100
C2470       C  0.53888110  0.37393644  0.60890417    -0.08500
C2471       C  0.53589353  0.40360938  0.60629023     0.05000
C2472       C  0.50943792  0.41659951  0.60979049    -0.03500
Br2473     Br  0.50491083  0.45736534  0.60784379    -0.03200
H2474       H  0.96552127  0.41020685  0.60911691     0.08900
H2475       H  0.55951446  0.36410907  0.60648817     0.06900
Br2476     Br  0.51943516  0.31584190  0.60566974    -0.03700
C2477       C  0.72446215  0.50501516  0.64055240    -0.10300
C2478       C  0.74663074  0.00748039  0.62080181     0.05900
C2479       C  0.73999962  0.99970650  0.58908107    -0.04100
C2480       C  0.71189510  0.99411303  0.58023902    -0.08500
C2481       C  0.69006591  0.49094832  0.59982415     0.05000
C2482       C  0.69716240  0.49566099  0.63214668    -0.03500
Br2483     Br  0.67077832  0.49104545  0.66634433    -0.03200
H2484       H  0.72922334  0.50958828  0.66515968     0.08900
H2485       H  0.70718827  0.98883717  0.55577922     0.06900
Br2486     Br  0.76754813  0.99786481  0.55576218    -0.03700
C2487       C  0.64460064  0.36275945  0.61753390    -0.10300
C2488       C  0.63641213  0.36544560  0.58553579     0.05900
C2489       C  0.63700756  0.34067236  0.56610259    -0.04100
C2490       C  0.64643936  0.31453353  0.57838713    -0.08500
C2491       C  0.65464678  0.31200732  0.61026865     0.05000
C2492       C  0.65336446  0.33644902  0.62995353    -0.03500
Br2493     Br  0.66500808  0.33532523  0.67333827    -0.03200
H2494       H  0.64399398  0.38128769  0.63323063     0.08900
H2495       H  0.64745266  0.29593446  0.56280269     0.06900
Br2496     Br  0.62662904  0.34145051  0.52234364    -0.03700
O2497       O  0.56564399  0.96307347  0.51643776    -0.82900
C2498       C  0.66062578  0.98778677  0.59218840     0.96400
O2499       O  0.65109156  0.99480003  0.56542107    -0.72100
O2500       O  0.62094018  0.98783128  0.51232339    -0.75600
Al2501     Al  0.61117577  0.99660472  0.55504550     1.49000
C2502       C  0.62405308  0.96518292  0.49576937     0.91700
O2503       O  0.61133497  0.90170199  0.55373016    -0.81900
O2504       O  0.58624803  0.92008086  0.60673796    -0.75400
Al2505     Al  0.59007530  0.93543017  0.53782988     1.90100
O2506       O  0.64088294  0.92210216  0.58719599    -0.74500
O2507       O  0.58891304  0.97300887  0.62168769    -0.74300
O2508       O  0.64526325  0.97385079  0.61068404    -0.80000
O2509       O  0.60392328  0.50992697  0.59074887    -0.78200
O2510       O  0.60543152  0.96028547  0.56499028    -1.14300
O2511       O  0.57501356  0.50015951  0.53728073    -0.73500
C2512       C  0.55887736  0.98907612  0.52169033     0.97200
C2513       C  0.63204093  0.89989920  0.57304894     0.93600
Al2514     Al  0.61460594  0.94840146  0.60325801     1.55600
O2515       O  0.61861319  0.94084626  0.50710001    -0.78200
C2516       C  0.59016074  0.99981619  0.62029918     0.97700
C2517       C  0.56277406  0.91911281  0.59307759     0.92600
O2518       O  0.55961403  0.92868135  0.56562148    -0.83500
O2519       O  0.96987382  0.81663448  0.52513157    -0.82900
C2520       C  0.86794359  0.79333105  0.58954512     0.96400
O2521       O  0.87992050  0.78532449  0.56419145    -0.72100
O2522       O  0.91347604  0.79629352  0.51365767    -0.75600
Al2523     Al  0.92025187  0.78383423  0.55660230     1.49000
C2524       C  0.91350274  0.82065416  0.50037223     0.91700
O2525       O  0.92758507  0.87919344  0.56463589    -0.81900
O2526       O  0.94517357  0.85559063  0.61854855    -0.75400
Al2527     Al  0.94623167  0.84423787  0.54811740     1.90100
O2528       O  0.89274230  0.86160921  0.59251723    -0.74500
O2529       O  0.93402928  0.80317229  0.62884446    -0.74300
O2530       O  0.88080926  0.80920998  0.60892370    -0.80000
O2531       O  0.92655202  0.76577139  0.59755476    -0.78200
O2532       O  0.92655045  0.81951369  0.57091902    -1.14300
O2533       O  0.95959687  0.77568728  0.54608668    -0.73500
C2534       C  0.97481134  0.79007416  0.52732147     0.97200
C2535       C  0.90506635  0.88288099  0.58062274     0.93600
Al2536     Al  0.91413422  0.83114867  0.60880550     1.55600
O2537       O  0.91974751  0.84333406  0.51549619    -0.78200
C2538       C  0.93405056  0.77662949  0.62401700     0.97700
C2539       C  0.96956647  0.85577427  0.60675037     0.92600
O2540       O  0.97433395  0.84606482  0.57931109    -0.83500
O2541       O  0.72469211  0.68518749  0.64002957    -0.82900
C2542       C  0.67171121  0.79099551  0.62196017     0.96400
O2543       O  0.68780242  0.77707039  0.60399650    -0.72100
O2544       O  0.73897235  0.76771539  0.62532358    -0.75600
Al2545     Al  0.71035983  0.74415177  0.60769397     1.49000
C2546       C  0.75985153  0.75603046  0.63814803     0.91700
O2547       O  0.71927160  0.74252473  0.70291724    -0.81900
O2548       O  0.65435130  0.70021824  0.66853575    -0.75400
Al2549     Al  0.72180072  0.71472499  0.67023667     1.90100
O2550       O  0.67297732  0.74853086  0.70015785    -0.74500
O2551       O  0.64619551  0.73114711  0.61643665    -0.74300
O2552       O  0.66421742  0.78050170  0.64817392    -0.80000
O2553       O  0.68385201  0.72186617  0.58750572    -0.78200
O2554       O  0.69797522  0.73325767  0.64545465    -1.14300
O2555       O  0.73536587  0.71277828  0.60031225    -0.73500
C2556       C  0.73301915  0.68822817  0.61194976     0.97200
C2557       C  0.69586158  0.74871407  0.71583580     0.93600
Al2558     Al  0.66246427  0.73978460  0.65739253     1.55600
O2559       O  0.75625284  0.73372099  0.65463578    -0.78200
C2560       C  0.65755641  0.72168359  0.59127282     0.97700
C2561       C  0.66853629  0.68469530  0.68699102     0.92600
O2562       O  0.69428818  0.69078097  0.69150974    -0.83500
O2563       O  0.79957822  0.59670897  0.63391147    -0.82900
C2564       C  0.86402545  0.99599417  0.61945462     0.96400
O2565       O  0.84901429  0.50878188  0.59697197    -0.72100
O2566       O  0.79533256  0.51359094  0.61328587    -0.75600
Al2567     Al  0.82313770  0.54015100  0.60050060     1.49000
C2568       C  0.77306614  0.52214047  0.62674788     0.91700
O2569       O  0.80733880  0.53983570  0.69492911    -0.81900
O2570       O  0.87241924  0.58469319  0.66750348    -0.75400
Al2571     Al  0.80495608  0.56714447  0.66336718     1.90100
O2572       O  0.85370473  0.53689717  0.69718168    -0.74500
O2573       O  0.88502035  0.55344055  0.61504193    -0.74300
O2574       O  0.86496416  0.50402044  0.64486034    -0.80000
O2575       O  0.84918947  0.56611734  0.58516753    -0.78200
O2576       O  0.83146925  0.55068986  0.63998138    -1.14300
O2577       O  0.79505948  0.56838032  0.59254241    -0.73500
C2578       C  0.79022922  0.59173822  0.60649311     0.97200
C2579       C  0.82958128  0.53534918  0.71021663     0.93600
Al2580     Al  0.86617184  0.54501186  0.65488965     1.55600
O2581       O  0.77385681  0.54389166  0.64537849    -0.78200
C2582       C  0.87528877  0.56476561  0.59017746     0.97700
C2583       C  0.85675822  0.59936048  0.68591616     0.92600
O2584       O  0.83048526  0.59333977  0.68694029    -0.83500
O2585       O  0.80597576  0.93372995  0.89125439    -0.82900
C2586       C  0.90726507  0.99288416  0.86723858     0.96400
O2587       O  0.89281457  0.97816521  0.84782866    -0.72100
O2588       O  0.88573828  0.92503977  0.86612160    -0.75600
Al2589     Al  0.86059802  0.95366141  0.85243765     1.49000
C2590       C  0.87695035  0.90367781  0.88120805     0.91700
O2591       O  0.86628932  0.94584386  0.94739203    -0.81900
O2592       O  0.82058885  0.51209333  0.91586108    -0.75400
Al2593     Al  0.83684050  0.94052432  0.91797006     1.90100
O2594       O  0.86633387  0.99279791  0.94558176    -0.74500
O2595       O  0.84879512  0.52283820  0.86158364    -0.74300
O2596       O  0.89681704  0.00015085  0.89362374    -0.80000
O2597       O  0.83622369  0.97991423  0.83486545    -0.78200
O2598       O  0.85177252  0.96530191  0.89130578    -1.14300
O2599       O  0.83042621  0.92666518  0.84766865    -0.73500
C2600       C  0.80804616  0.92403942  0.86346047     0.97200
C2601       C  0.87050558  0.96997263  0.96052022     0.93600
Al2602     Al  0.85731290  0.00170254  0.90306983     1.55600
O2603       O  0.85698369  0.90675599  0.90115592    -0.78200
C2604       C  0.83838201  0.00659660  0.83783022     0.97700
C2605       C  0.80567731  0.99385952  0.93589556     0.92600
O2606       O  0.81302907  0.96812476  0.94072075    -0.83500
O2607       O  0.71348033  0.85227974  0.89770905    -0.82900
C2608       C  0.61323334  0.79140001  0.87009845     0.96400
O2609       O  0.62904638  0.80463955  0.85125210    -0.72100
O2610       O  0.63336950  0.85774544  0.87201060    -0.75600
Al2611     Al  0.66009836  0.83044767  0.85826944     1.49000
C2612       C  0.64155909  0.88005520  0.88645200     0.91700
O2613       O  0.65309111  0.83992818  0.95333561    -0.81900
O2614       O  0.70121393  0.77733011  0.92234783    -0.75400
Al2615     Al  0.68246711  0.84526618  0.92415609     1.90100
O2616       O  0.65231393  0.79290612  0.95122659    -0.74500
O2617       O  0.67248520  0.76708640  0.86760893    -0.74300
O2618       O  0.62257224  0.78516179  0.89725584    -0.80000
O2619       O  0.68646662  0.80511742  0.84161506    -0.78200
O2620       O  0.66824986  0.81966726  0.89731024    -1.14300
O2621       O  0.68877269  0.85885437  0.85460109    -0.73500
C2622       C  0.71121591  0.86171568  0.87011628     0.97200
C2623       C  0.64994240  0.81611683  0.96674582     0.93600
Al2624     Al  0.66236953  0.78351617  0.90856562     1.55600
O2625       O  0.66136955  0.87825411  0.90685865    -0.78200
C2626       C  0.68486155  0.77843822  0.84420232     0.97700
C2627       C  0.71407189  0.79239077  0.94323733     0.92600
O2628       O  0.70682839  0.81842516  0.94700542    -0.83500
O2629       O  0.58778042  0.59032023  0.76293133    -0.82900
C2630       C  0.60936438  0.99430377  0.84478992     0.96400
O2631       O  0.61686454  0.50252554  0.81000404    -0.72100
O2632       O  0.60835561  0.53304359  0.75640240    -0.75600
Al2633     Al  0.61952581  0.54292563  0.79913530     1.49000
C2634       C  0.58464970  0.53167690  0.74221500     0.91700
O2635       O  0.52577857  0.54979051  0.80278801    -0.81900
O2636       O  0.54774316  0.57278927  0.85566063    -0.75400
Al2637     Al  0.56018350  0.56791296  0.78608415     1.90100
O2638       O  0.54270859  0.51752959  0.83448188    -0.74500
O2639       O  0.59954666  0.56430411  0.86862395    -0.74300
O2640       O  0.59445224  0.50805952  0.85470924    -0.80000
O2641       O  0.63667402  0.55247885  0.84005098    -0.78200
O2642       O  0.58423090  0.55049415  0.81149659    -1.14300
O2643       O  0.62802991  0.58192871  0.78589082    -0.73500
C2644       C  0.61371761  0.59626547  0.76632424     0.97200
C2645       C  0.52181831  0.52852063  0.82072834     0.93600
Al2646     Al  0.57233006  0.54133927  0.84996153     1.55600
O2647       O  0.56194582  0.53841033  0.75597296    -0.78200
C2648       C  0.62585500  0.56309223  0.86509232     0.97700
C2649       C  0.54724506  0.59642096  0.84181758     0.92600
O2650       O  0.55713086  0.59922190  0.81436640    -0.83500
O2651       O  0.93759696  0.69159983  0.77108206    -0.82900
C2652       C  0.91149803  0.78721586  0.84718109     0.96400
O2653       O  0.90546477  0.77713146  0.81999834    -0.72100
O2654       O  0.91476323  0.74678294  0.76607142    -0.75600
Al2655     Al  0.90368659  0.73693672  0.80854566     1.49000
C2656       C  0.93856508  0.74990695  0.75252427     0.91700
O2657       O  0.99736514  0.73583592  0.81432415    -0.81900
O2658       O  0.97562867  0.70964352  0.86577208    -0.75400
Al2659     Al  0.96426084  0.71550147  0.79579978     1.90100
O2660       O  0.97816023  0.76557321  0.84845488    -0.74500
O2661       O  0.92263447  0.71470312  0.87719060    -0.74300
O2662       O  0.92508417  0.77214584  0.86627421    -0.80000
O2663       O  0.88604997  0.72745295  0.84884304    -0.78200
O2664       O  0.93896633  0.73091565  0.82156220    -1.14300
O2665       O  0.89697721  0.69754203  0.79457894    -0.73500
C2666       C  0.91170735  0.68456807  0.77377919     0.97200
C2667       C  0.49824411  0.75697153  0.83396149     0.93600
Al2668     Al  0.94922069  0.73977632  0.86099604     1.55600
O2669       O  0.96129212  0.74535044  0.76704424    -0.78200
C2670       C  0.89639995  0.71642533  0.87351720     0.97700
C2671       C  0.97841784  0.68681424  0.85002821     0.92600
O2672       O  0.96887145  0.68411661  0.82238911    -0.83500
O2673       O  0.80606333  0.71129543  0.02383545    -0.82900
C2674       C  0.90516661  0.73763642  0.09302032     0.96400
O2675       O  0.89456663  0.74358101  0.06635121    -0.72100
O2676       O  0.86186239  0.73344942  0.01451548    -0.75600
Al2677     Al  0.85412077  0.74557900  0.05743073     1.49000
C2678       C  0.86345454  0.70916350  0.00063631     0.91700
O2679       O  0.85003560  0.65103438  0.06342050    -0.81900
O2680       O  0.82792968  0.67327389  0.11690611    -0.75400
Al2681     Al  0.83003499  0.68445899  0.04656224     1.90100
O2682       O  0.88228299  0.67106144  0.09378409    -0.74500
O2683       O  0.83490055  0.72694143  0.12746470    -0.74300
O2684       O  0.89052576  0.72402160  0.11265256    -0.80000
O2685       O  0.84707817  0.76388815  0.09862888    -0.78200
O2686       O  0.84762211  0.71013404  0.07076436    -1.14300
O2687       O  0.81472139  0.75290818  0.04587099    -0.73500
C2688       C  0.80010242  0.73765833  0.02668373     0.97200
C2689       C  0.87230335  0.64909320  0.08018311     0.93600
Al2690     Al  0.85811848  0.69984449  0.10930489     1.55600
O2691       O  0.85758108  0.68630013  0.01483849    -0.78200
C2692       C  0.83766842  0.75347458  0.12423595     0.97700
C2693       C  0.80396116  0.67280794  0.10406231     0.92600
O2694       O  0.80073478  0.68122752  0.07612209    -0.83500
O2695       O  0.55425464  0.84646847  0.14876414    -0.82900
C2696       C  0.60601264  0.74125875  0.11984273     0.96400
O2697       O  0.59372551  0.75794757  0.10125853    -0.72100
O2698       O  0.54129316  0.76702097  0.11848985    -0.75600
Al2699     Al  0.57148787  0.79154663  0.10751225     1.49000
C2700       C  0.52015435  0.77585407  0.13385243     0.91700
O2701       O  0.55974628  0.78332119  0.20208954    -0.81900
O2702       O  0.62543188  0.82897837  0.17272057    -0.75400
Al2703     Al  0.55762201  0.81406990  0.17393383     1.90100
O2704       O  0.60620295  0.78085554  0.20178757    -0.74500
O2705       O  0.63494920  0.79799371  0.11918523    -0.74300
O2706       O  0.61234829  0.74992066  0.14757818    -0.80000
O2707       O  0.59955384  0.81599264  0.09283864    -0.78200
O2708       O  0.58193420  0.79819045  0.14720964    -1.14300
O2709       O  0.54724014  0.82324400  0.10404903    -0.73500
C2710       C  0.54654924  0.84589856  0.12037789     0.97200
C2711       C  0.58274288  0.77858822  0.21607953     0.93600
Al2712     Al  0.61690937  0.78990867  0.15939551     1.55600
O2713       O  0.52345846  0.79549065  0.15492303    -0.78200
C2714       C  0.62545581  0.81129954  0.09561398     0.97700
C2715       C  0.61167633  0.84310658  0.19344748     0.92600
O2716       O  0.58586008  0.83656873  0.19841570    -0.83500
O2717       O  0.71058026  0.56997790  0.01784611    -0.82900
C2718       C  0.61354379  0.53710100  0.08656844     0.96400
O2719       O  0.62336491  0.53290076  0.05893840    -0.72100
O2720       O  0.65539112  0.54457760  0.00662023    -0.75600
Al2721     Al  0.66369399  0.53260556  0.04913368     1.49000
C2722       C  0.65314006  0.56883256  0.99369029     0.91700
O2723       O  0.66170168  0.62646886  0.05950342    -0.81900
O2724       O  0.68710334  0.60502497  0.11221629    -0.75400
Al2725     Al  0.68458288  0.59522802  0.04108786     1.90100
O2726       O  0.63274316  0.60444991  0.09193311    -0.74500
O2727       O  0.68493352  0.55049145  0.11877449    -0.74300
O2728       O  0.62858713  0.55006027  0.10676375    -0.80000
O2729       O  0.67238863  0.51368157  0.08879064    -0.78200
O2730       O  0.66896220  0.56811019  0.06430427    -1.14300
O2731       O  0.70280001  0.52752698  0.03738974    -0.73500
C2732       C  0.71743519  0.54375116  0.01992923     0.97200
C2733       C  0.64089275  0.62712305  0.07875162     0.93600
Al2734     Al  0.65917115  0.57649533  0.10388440     1.55600
O2735       O  0.65726127  0.59165077  0.00925741    -0.78200
C2736       C  0.68379242  0.52397005  0.11366936     0.97700
C2737       C  0.70999799  0.61003761  0.09837243     0.92600
O2738       O  0.71417292  0.60156244  0.07040531    -0.83500
O2739       O  0.97176411  0.93864878  0.13890362    -0.82900
C2740       C  0.91481342  0.54087456  0.12417476     0.96400
O2741       O  0.92950411  0.52758167  0.10404148    -0.72100
O2742       O  0.98198292  0.51669652  0.11996089    -0.75600
Al2743     Al  0.95426311  0.99567969  0.10346126     1.49000
C2744       C  0.50129457  0.50324138  0.13127518     0.91700
O2745       O  0.96487613  0.99854031  0.19797689    -0.81900
O2746       O  0.89996079  0.95353112  0.16677824    -0.75400
Al2747     Al  0.96752789  0.96943200  0.16742783     1.90100
O2748       O  0.91782704  0.49528975  0.19960168    -0.74500
O2749       O  0.89061937  0.98530123  0.11440935    -0.74300
O2750       O  0.90829971  0.52937259  0.15013708    -0.80000
O2751       O  0.92702076  0.97163411  0.08563160    -0.78200
O2752       O  0.94311179  0.98636939  0.14221447    -1.14300
O2753       O  0.97982579  0.96497881  0.09720737    -0.73500
C2754       C  0.98239263  0.94199188  0.11190543     0.97200
C2755       C  0.94173097  0.49714367  0.21311680     0.93600
Al2756     Al  0.90772928  0.99309403  0.15504830     1.60400
O2757       O  0.50082445  0.98734346  0.15111351    -0.78200
C2758       C  0.90093689  0.97506766  0.08909474     0.97700
C2759       C  0.91426544  0.93957875  0.18668048     0.92600
O2760       O  0.94022803  0.94586142  0.19007730    -0.83500
O2761       O  0.97535827  0.60554953  0.39329246    -0.82900
C2762       C  0.87240757  0.54800328  0.36763945     0.96400
O2763       O  0.88644792  0.56490510  0.35084144    -0.72100
O2764       O  0.89433056  0.61712208  0.37364253    -0.75600
Al2765     Al  0.91865028  0.58866917  0.35683906     1.49000
C2766       C  0.90448455  0.63859134  0.38825305     0.91700
O2767       O  0.91704022  0.59595525  0.45214632    -0.81900
O2768       O  0.96080210  0.53202724  0.41733000    -0.75400
Al2769     Al  0.94531787  0.60014341  0.42158520     1.90100
O2770       O  0.91252314  0.54888852  0.44844288    -0.74500
O2771       O  0.93108378  0.52408731  0.36410579    -0.74300
O2772       O  0.88205586  0.54029816  0.39418178    -0.80000
O2773       O  0.94225013  0.56237190  0.33679114    -0.78200
O2774       O  0.92831472  0.57593932  0.39483204    -1.14300
O2775       O  0.94872549  0.61523905  0.35239118    -0.73500
C2776       C  0.97223946  0.61563243  0.36607550     0.97200
C2777       C  0.91115624  0.57211591  0.46438363     0.93600
Al2778     Al  0.92200947  0.53950477  0.40522470     1.55600
O2779       O  0.92559547  0.63505150  0.40656873    -0.78200
C2780       C  0.94112871  0.53564281  0.33958109     0.97700
C2781       C  0.97539351  0.54571941  0.43762012     0.92600
O2782       O  0.96930084  0.57183722  0.44304478    -0.83500
O2783       O  0.56606195  0.68222489  0.38968681    -0.82900
C2784       C  0.66776836  0.74282055  0.37358767     0.96400
O2785       O  0.65397185  0.72845448  0.35350558    -0.72100
O2786       O  0.64815956  0.67532897  0.37157077    -0.75600
Al2787     Al  0.62284314  0.70294207  0.35642199     1.49000
C2788       C  0.63845330  0.65279725  0.38365845     0.91700
O2789       O  0.62318030  0.69097684  0.44995054    -0.81900
O2790       O  0.57693023  0.75470784  0.42052188    -0.75400
Al2791     Al  0.59535274  0.68729068  0.41903963     1.90100
O2792       O  0.62494833  0.73835390  0.45114756    -0.74500
O2793       O  0.60725969  0.76651413  0.36824873    -0.74300
O2794       O  0.65655481  0.74930401  0.39988712    -0.80000
O2795       O  0.59864794  0.72842803  0.33839135    -0.78200
O2796       O  0.61161929  0.71338642  0.39501631    -1.14300
O2797       O  0.59396846  0.67515539  0.34875758    -0.73500
C2798       C  0.57018795  0.67321931  0.36184410     0.97200
C2799       C  0.62795352  0.71431731  0.46436584     0.93600
Al2800     Al  0.61626266  0.74932511  0.40876310     1.55600
O2801       O  0.61660998  0.65429732  0.40131061    -0.78200
C2802       C  0.59744238  0.75493643  0.34316541     0.97700
C2803       C  0.56323627  0.73958543  0.44002721     0.92600
O2804       O  0.57019996  0.71346302  0.44281707    -0.83500
O2805       O  0.83890261  0.84747702  0.27300501    -0.82900
C2806       C  0.86848464  0.75238742  0.34691169     0.96400
O2807       O  0.87305898  0.76159338  0.31927336    -0.72100
O2808       O  0.86292206  0.79115242  0.26581841    -0.75600
Al2809     Al  0.87423293  0.80183127  0.30815518     1.49000
C2810       C  0.83904356  0.78754823  0.25268690     0.91700
O2811       O  0.78165077  0.80098764  0.31540228    -0.81900
O2812       O  0.80217216  0.82854971  0.36771412    -0.75400
Al2813     Al  0.81317193  0.82278354  0.29720856     1.90100
O2814       O  0.80186548  0.77250168  0.34942658    -0.74500
O2815       O  0.85604421  0.82635191  0.37681655    -0.74300
O2816       O  0.85568489  0.76808730  0.36669097    -0.80000
O2817       O  0.89222747  0.81197774  0.34816214    -0.78200
O2818       O  0.83915390  0.80789680  0.32202866    -1.14300
O2819       O  0.88018877  0.84094066  0.29470792    -0.73500
C2820       C  0.86491701  0.85430465  0.27523432     0.97200
C2821       C  0.78009283  0.78016929  0.33452552     0.93600
Al2822     Al  0.82995039  0.79957499  0.36170699     1.55600
O2823       O  0.81647691  0.79326245  0.26716142    -0.78200
C2824       C  0.88221770  0.82378643  0.37295468     0.97700
C2825       C  0.79795602  0.85121089  0.35282808     0.92600
O2826       O  0.80723029  0.85428394  0.32512732    -0.83500
O2827       O  0.69543727  0.93696444  0.26791104    -0.82900
C2828       C  0.67772344  0.54286664  0.33408944     0.96400
O2829       O  0.66872294  0.53110407  0.30887599    -0.72100
O2830       O  0.67554548  0.49765680  0.25642549    -0.75600
Al2831     Al  0.66379053  0.98704955  0.29979279     1.49000
C2832       C  0.69846258  0.49946091  0.24050576     0.91700
O2833       O  0.75927323  0.98015496  0.30196838    -0.81900
O2834       O  0.73652955  0.96972118  0.35799194    -0.75400
Al2835     Al  0.72329668  0.96200487  0.28864198     1.90100
O2836       O  0.74356552  0.01964907  0.32256574    -0.74500
O2837       O  0.68708411  0.98706556  0.37170466    -0.74300
O2838       O  0.69528926  0.53011855  0.35105729    -0.80000
O2839       O  0.64879646  0.98283727  0.34228191    -0.78200
O2840       O  0.69991194  0.98393455  0.31126157    -1.14300
O2841       O  0.65690242  0.94633469  0.29346090    -0.73500
C2842       C  0.66978401  0.93112499  0.27327857     0.97200
C2843       C  0.76616615  0.50802287  0.31345465     0.93600
Al2844     Al  0.71402120  0.00174272  0.34525444     1.55600
O2845       O  0.72124314  0.98676084  0.25451671    -0.78200
C2846       C  0.66103367  0.98289984  0.36897196     0.97700
C2847       C  0.73471898  0.94368043  0.34933580     0.92600
O2848       O  0.72533500  0.93648856  0.32226153    -0.83500
C2849       C  0.79143357  0.89910847  0.37693865    -0.10300
C2850       C  0.77973453  0.87303830  0.36646773     0.05900
C2851       C  0.75019636  0.86999966  0.36410139    -0.04100
C2852       C  0.73346816  0.89421817  0.36544509    -0.08500
C2853       C  0.74610846  0.92116088  0.36902110     0.05000
C2854       C  0.77416450  0.92314943  0.37984126    -0.03500
Br2855     Br  0.78982360  0.95814126  0.39650183    -0.03200
H2856       H  0.81398158  0.90115022  0.38094727     0.08900
H2857       H  0.71135429  0.89243511  0.35885168     0.06900
Br2858     Br  0.73168605  0.83471372  0.35369491    -0.03700
C2859       C  0.70197646  0.75883504  0.33273629    -0.10300
C2860       C  0.69687236  0.75213409  0.36458140     0.05900
C2861       C  0.71993421  0.75243845  0.38566071    -0.04100
C2862       C  0.74714475  0.75975617  0.37477093    -0.08500
C2863       C  0.75203049  0.76752351  0.34307966     0.05000
C2864       C  0.72890572  0.76681317  0.32201104    -0.03500
Br2865     Br  0.73224404  0.77706856  0.27845448    -0.03200
H2866       H  0.68466079  0.75834304  0.31597899     0.08900
H2867       H  0.76439998  0.76048492  0.39159279     0.06900
Br2868     Br  0.71575208  0.74212693  0.42915717    -0.03700
C2869       C  0.65701987  0.57317983  0.37705198    -0.10300
C2870       C  0.66700784  0.57103838  0.34573847     0.05900
C2871       C  0.66837418  0.59604380  0.32768323    -0.04100
C2872       C  0.66013670  0.62244235  0.34108823    -0.08500
C2873       C  0.64997845  0.62464511  0.37247076     0.05000
C2874       C  0.64855566  0.59948353  0.39046085    -0.03500
Br2875     Br  0.63623161  0.59979071  0.43367328    -0.03200
H2876       H  0.65550006  0.55411087  0.39117101     0.08900
H2877       H  0.66102934  0.64130292  0.32647047     0.06900
Br2878     Br  0.68215864  0.59534306  0.28505468    -0.03700
C2879       C  0.52190186  0.61386684  0.34857105    -0.10300
C2880       C  0.99602039  0.62915100  0.35104242     0.05900
C2881       C  0.99594716  0.65879030  0.34563923    -0.04100
C2882       C  0.52222436  0.67334610  0.34226154    -0.08500
C2883       C  0.54743102  0.65832209  0.34604088     0.05000
C2884       C  0.54745817  0.62826470  0.34579882    -0.03500
Br2885     Br  0.58151119  0.60638566  0.34844395    -0.03200
H2886       H  0.52187778  0.59101824  0.35284039     0.08900
H2887       H  0.52242817  0.69658832  0.34211311     0.06900
Br2888     Br  0.96227959  0.68144947  0.34785814    -0.03700
C2889       C  0.88310388  0.67169961  0.34886451    -0.10300
C2890       C  0.89407790  0.66795220  0.37958055     0.05900
C2891       C  0.89675556  0.69258018  0.39923526    -0.04100
C2892       C  0.88847008  0.71969246  0.38812745    -0.08500
C2893       C  0.87807724  0.72333318  0.35715384     0.05000
C2894       C  0.87545071  0.69878864  0.33758319    -0.03500
Br2895     Br  0.86013329  0.70065827  0.29568144    -0.03200
H2896       H  0.88100649  0.65340470  0.33297979     0.08900
H2897       H  0.89036573  0.73815755  0.40381201     0.06900
Br2898     Br  0.91062366  0.69045592  0.44171751    -0.03700
C2899       C  0.81498939  0.49853438  0.33327653    -0.10300
C2900       C  0.79519160  0.51829845  0.32197567     0.05900
C2901       C  0.80152373  0.54777403  0.32520716    -0.04100
C2902       C  0.82627720  0.55691250  0.34087309    -0.08500
C2903       C  0.84502003  0.53719113  0.35437554     0.05000
C2904       C  0.83944594  0.50766603  0.34970189    -0.03500
Br2905     Br  0.86316803  0.97158083  0.36206243    -0.03200
H2906       H  0.80817331  0.97077249  0.32952376     0.08900
H2907       H  0.83091271  0.57966111  0.34256933     0.06900
Br2908     Br  0.77752572  0.57628442  0.30724407    -0.03700
C2909       C  0.91686983  0.90690676  0.23388544    -0.10300
C2910       C  0.90098269  0.91705594  0.20811256     0.05900
C2911       C  0.87277910  0.90663493  0.20538138    -0.04100
C2912       C  0.86159228  0.88702409  0.22759299    -0.08500
C2913       C  0.87756767  0.87689347  0.25338564     0.05000
C2914       C  0.90573173  0.88744771  0.25608268    -0.03500
Br2915     Br  0.93055923  0.87708771  0.28988707    -0.03200
H2916       H  0.93834277  0.91455141  0.23731542     0.08900
H2917       H  0.84012060  0.87933626  0.22428010     0.06900
Br2918     Br  0.84826385  0.91763783  0.17158711    -0.03700
C2919       C  0.96712452  0.51856355  0.25872633    -0.10300
C2920       C  0.94328134  0.50388171  0.24699062     0.05900
C2921       C  0.92229378  0.49432482  0.26827795    -0.04100
C2922       C  0.92448581  0.50147159  0.30016789    -0.08500
C2923       C  0.94673949  0.51868134  0.31119983     0.05000
C2924       C  0.96883052  0.52625481  0.29059294    -0.03500
Br2925     Br  0.00474144  0.03245013  0.31210543    -0.03200
H2926       H  0.98641834  0.02108038  0.24689630     0.08900
H2927       H  0.90724373  0.49589180  0.31580597     0.06900
Br2928     Br  0.88964546  0.47214190  0.25599447    -0.03700
C2929       C  0.71749067  0.51558338  0.15559613    -0.10300
C2930       C  0.69275952  0.50641558  0.14003318     0.05900
C2931       C  0.67199499  0.49144149  0.15701477    -0.04100
C2932       C  0.67415496  0.48984851  0.18982459    -0.08500
C2933       C  0.69719856  0.50239867  0.20597207     0.05000
C2934       C  0.71981982  0.51395633  0.18835168    -0.03500
Br2935     Br  0.75296554  0.53087195  0.20740531    -0.03200
H2936       H  0.73352679  0.52732250  0.14266694     0.08900
H2937       H  0.65749472  0.47910400  0.20279736     0.06900
Br2938     Br  0.63866251  0.47603086  0.13707934    -0.03700
C2939       C  0.57814191  0.52869230  0.12979514    -0.10300
C2940       C  0.58470726  0.52714732  0.09709042     0.05900
C2941       C  0.56330616  0.51718907  0.07628778    -0.04100
C2942       C  0.53644140  0.50984020  0.08816204    -0.08500
C2943       C  0.53012847  0.51169184  0.12065046     0.05000
C2944       C  0.55138476  0.52098086  0.14153997    -0.03500
Br2945     Br  0.54427565  0.52506278  0.18599988    -0.03200
H2946       H  0.59388775  0.53613531  0.14661998     0.08900
H2947       H  0.52460192  0.00663489  0.07344260     0.06900
Br2948     Br  0.57416685  0.01544405  0.03459113    -0.03700
C2949       C  0.61759373  0.87133522  0.24498775    -0.10300
C2950       C  0.62613558  0.86636522  0.21335358     0.05900
C2951       C  0.64902394  0.88314478  0.20208313    -0.04100
C2952       C  0.66298117  0.90325317  0.22209828    -0.08500
C2953       C  0.65468864  0.90802308  0.25379860     0.05000
C2954       C  0.63143764  0.89169377  0.26495508    -0.03500
Br2955     Br  0.61857974  0.89506080  0.30784300    -0.03200
H2956       H  0.60029797  0.85883961  0.25458958     0.08900
H2957       H  0.68013483  0.91588989  0.21239041     0.06900
Br2958     Br  0.66103947  0.88122676  0.15878330    -0.03700
C2959       C  0.60396601  0.79105602  0.26748970    -0.10300
C2960       C  0.58297283  0.77584991  0.25055738     0.05900
C2961       C  0.56203527  0.76073898  0.26713962    -0.04100
C2962       C  0.56397211  0.75892613  0.29994180    -0.08500
C2963       C  0.58707228  0.77115714  0.31637287     0.05000
C2964       C  0.60606949  0.78894579  0.30020726    -0.03500
Br2965     Br  0.63770440  0.80717665  0.32079274    -0.03200
H2966       H  0.61943578  0.80395933  0.25509507     0.08900
H2967       H  0.54948087  0.74476716  0.31216494     0.06900
Br2968     Br  0.53304845  0.73872916  0.24613036    -0.03700
C2969       C  0.50622565  0.86741137  0.09522212    -0.10300
C2970       C  0.53352379  0.87092311  0.10741793     0.05900
C2971       C  0.54494924  0.89842749  0.11283475    -0.04100
C2972       C  0.52794997  0.92208081  0.10815612    -0.08500
C2973       C  0.00193929  0.92080350  0.10064017     0.05000
C2974       C  0.99203054  0.89514790  0.08714162    -0.03500
Br2975     Br  0.95574078  0.89253311  0.06732166    -0.03200
H2976       H  0.99888635  0.84999949  0.08328873     0.08900
H2977       H  0.53592300  0.94319143  0.11473419     0.06900
Br2978     Br  0.58162073  0.90473301  0.13124991    -0.03700
C2979       C  0.61761887  0.69016068  0.13072692    -0.10300
C2980       C  0.61304248  0.71160631  0.10848397     0.05900
C2981       C  0.61516681  0.70399327  0.07586547    -0.04100
C2982       C  0.62347911  0.67625687  0.06662057    -0.08500
C2983       C  0.62849578  0.65505083  0.08897052     0.05000
C2984       C  0.62476251  0.66217183  0.12141790    -0.03500
Br2985     Br  0.63113916  0.63570417  0.15494753    -0.03200
H2986       H  0.61566475  0.69516955  0.15570551     0.08900
H2987       H  0.62620782  0.67124289  0.04172825     0.06900
Br2988     Br  0.60770150  0.72996448  0.04210512    -0.03700
C2989       C  0.81216765  0.76042634  0.17375349    -0.10300
C2990       C  0.83327805  0.77049156  0.15320212     0.05900
C2991       C  0.85539983  0.78761682  0.16557564    -0.04100
C2992       C  0.85720333  0.79241283  0.19820431    -0.08500
C2993       C  0.83735564  0.78021265  0.21887146     0.05000
C2994       C  0.81443273  0.76443805  0.20631005    -0.03500
Br2995     Br  0.78790123  0.74435142  0.23240099    -0.03200
H2996       H  0.79548611  0.74652578  0.16469756     0.08900
H2997       H  0.87439143  0.80549662  0.20749538     0.06900
Br2998     Br  0.88528383  0.80246598  0.13969986    -0.03700
C2999       C  0.75528191  0.61574772  0.12628569    -0.10300
C3000       C  0.73098019  0.62814793  0.11368545     0.05900
C3001       C  0.72941637  0.65801449  0.11048185    -0.04100
C3002       C  0.75375360  0.67435368  0.11405857    -0.08500
C3003       C  0.77945023  0.66097365  0.12019598     0.05000
C3004       C  0.77957070  0.63248458  0.13064106    -0.03500
Br3005     Br  0.81267576  0.61500436  0.14759439    -0.03200
H3006       H  0.75601212  0.59287997  0.13036495     0.08900
H3007       H  0.75342615  0.69670023  0.10733863     0.06900
Br3008     Br  0.69646204  0.67711531  0.09561841    -0.03700
C3009       C  0.94010882  0.74997650  0.13581986    -0.10300
C3010       C  0.93436310  0.74693097  0.10311452     0.05900
C3011       C  0.95683490  0.75176533  0.08184434    -0.04100
C3012       C  0.98370793  0.75996589  0.09332588    -0.08500
C3013       C  0.98911872  0.76383245  0.12595778     0.05000
C3014       C  0.96687878  0.75848741  0.14721592    -0.03500
Br3015     Br  0.47461646  0.76284631  0.19002735    -0.03200
H3016       H  0.92351651  0.74591841  0.15288382     0.08900
H3017       H  0.00049423  0.76378114  0.07642285     0.06900
Br3018     Br  0.95271008  0.74611994  0.03706874    -0.03700
C3019       C  0.86562660  0.59796862  0.09404829    -0.10300
C3020       C  0.88434009  0.62077765  0.08820222     0.05900
C3021       C  0.91334169  0.61723531  0.09523376    -0.04100
C3022       C  0.92286334  0.59140097  0.10800615    -0.08500
C3023       C  0.90381040  0.56922405  0.11526450     0.05000
C3024       C  0.87495921  0.57271486  0.10811273    -0.03500
Br3025     Br  0.84749334  0.54329047  0.11630046    -0.03200
H3026       H  0.84334236  0.60021053  0.08880587     0.08900
H3027       H  0.94527252  0.58854906  0.11219298     0.06900
Br3028     Br  0.94103519  0.64643914  0.08662207    -0.03700
C3029       C  0.85620539  0.72863535  0.94741210    -0.10300
C3030       C  0.86881709  0.70785510  0.96645375     0.05900
C3031       C  0.88413419  0.68542850  0.95206241    -0.04100
C3032       C  0.88920497  0.68603037  0.91958860    -0.08500
C3033       C  0.87926197  0.70867832  0.90108229     0.05000
C3034       C  0.86097019  0.72898249  0.91485315    -0.03500
Br3035     Br  0.84445303  0.75944465  0.89121325    -0.03200
H3036       H  0.84296472  0.74504479  0.95801038     0.08900
H3037       H  0.90334015  0.67027051  0.90926319     0.06900
Br3038     Br  0.90140430  0.65538542  0.97577635    -0.03700
C3039       C  0.63063183  0.59309232  0.91255081    -0.10300
C3040       C  0.64241055  0.57148408  0.89318459     0.05900
C3041       C  0.66138505  0.55204412  0.90663709    -0.04100
C3042       C  0.66425493  0.55134102  0.93955736    -0.08500
C3043       C  0.64928372  0.57054982  0.95922169     0.05000
C3044       C  0.63373528  0.59268960  0.94530784    -0.03500
Br3045     Br  0.61353065  0.62094442  0.96969481    -0.03200
H3046       H  0.61624091  0.60847121  0.90244821     0.08900
H3047       H  0.67801446  0.53550654  0.94985936     0.06900
Br3048     Br  0.68192463  0.52461453  0.88150112    -0.03700
C3049       C  0.52396432  0.67033036  0.86050397    -0.10300
C3050       C  0.99624167  0.66453255  0.86177970     0.05900
C3051       C  0.98551360  0.63665216  0.86457297    -0.04100
C3052       C  0.50273304  0.61436695  0.86199343    -0.08500
C3053       C  0.53140699  0.61958520  0.85585143     0.05000
C3054       C  0.54247394  0.64751698  0.85702744    -0.03500
Br3055     Br  0.58196985  0.65532436  0.85054058    -0.03200
H3056       H  0.53201033  0.69204626  0.85839093     0.08900
H3057       H  0.99555074  0.59214319  0.86191417     0.06900
Br3058     Br  0.94561435  0.62894678  0.86630890    -0.03700
C3059       C  0.74231161  0.74938923  0.96208705    -0.10300
C3060       C  0.73653106  0.77899820  0.96463560     0.05900
C3061       C  0.75106073  0.79427042  0.98921136    -0.04100
C3062       C  0.77090729  0.78044448  0.00894018    -0.08500
C3063       C  0.77696690  0.75092962  0.00611209     0.05000
C3064       C  0.76166142  0.73542325  0.98228158    -0.03500
Br3065     Br  0.76526393  0.69477419  0.97564539    -0.03200
H3066       H  0.73127006  0.73662050  0.94438509     0.08900
H3067       H  0.78176454  0.79314875  0.02683805     0.06900
Br3068     Br  0.74491356  0.83419710  0.99822494    -0.03700
C3069       C  0.63973448  0.84088170  0.01750212    -0.10300
C3070       C  0.64739309  0.81555790  0.00147389     0.05900
C3071       C  0.65607886  0.79167110  0.01943125    -0.04100
C3072       C  0.65359415  0.79258323  0.05228042    -0.08500
C3073       C  0.64252563  0.81671039  0.06763173     0.05000
C3074       C  0.63760115  0.84163745  0.05029379    -0.03500
Br3075     Br  0.62592845  0.87657131  0.07043217    -0.03200
H3076       H  0.63472082  0.86004286  0.00452149     0.08900
H3077       H  0.65757923  0.77329214  0.06551789     0.06900
Br3078     Br  0.67131019  0.75686707  0.00164723    -0.03700
C3079       C  0.54769879  0.77205276  0.81978950    -0.10300
C3080       C  0.52683762  0.76842517  0.84300053     0.05900
C3081       C  0.53452807  0.77355993  0.87501373    -0.04100
C3082       C  0.56260840  0.78045286  0.88310452    -0.08500
C3083       C  0.58365180  0.78365932  0.86000237     0.05000
C3084       C  0.57551367  0.78034196  0.82777640    -0.03500
Br3085     Br  0.60095896  0.78625184  0.79302817    -0.03200
H3086       H  0.54228035  0.76855719  0.79515687     0.08900
H3087       H  0.56794773  0.78363467  0.90780071     0.06900
Br3088     Br  0.50838314  0.77028936  0.90953264    -0.03700
C3089       C  0.63143399  0.93199667  0.89760688    -0.10300
C3090       C  0.63059663  0.90863202  0.87638557     0.05900
C3091       C  0.62224788  0.91394480  0.84465897    -0.04100
C3092       C  0.61639271  0.94192570  0.83487631    -0.08500
C3093       C  0.61732767  0.96520419  0.85605928     0.05000
C3094       C  0.62427139  0.95977950  0.88806792    -0.03500
Br3095     Br  0.62510634  0.98919018  0.92023326    -0.03200
H3096       H  0.63774516  0.92865242  0.92187278     0.08900
H3097       H  0.61049462  0.94543028  0.81050329     0.06900
Br3098     Br  0.61933091  0.88480862  0.81225877    -0.03700
C3099       C  0.77179002  0.99160356  0.98185275    -0.10300
C3100       C  0.78521648  0.51003669  0.95792930     0.05900
C3101       C  0.77520505  0.53861503  0.95569547    -0.04100
C3102       C  0.75387307  0.54895376  0.97630571    -0.08500
C3103       C  0.74180017  0.53192844  0.00020141     0.05000
C3104       C  0.75250937  0.50370514  0.00315258    -0.03500
Br3105     Br  0.74023987  0.97833716  0.03684852    -0.03200
H3106       H  0.77845652  0.96967533  0.98510521     0.08900
H3107       H  0.74648270  0.57066848  0.97328457     0.06900
Br3108     Br  0.78956205  0.56535342  0.92543913    -0.03700
C3109       C  0.87603040  0.94620079  0.01223675    -0.10300
C3110       C  0.87678817  0.97162589  0.99460107     0.05900
C3111       C  0.88027568  0.99823183  0.01075803    -0.04100
C3112       C  0.88359913  0.99866057  0.04332733    -0.08500
C3113       C  0.88448745  0.97326934  0.06034971     0.05000
C3114       C  0.88014201  0.94692449  0.04487703    -0.03500
Br3115     Br  0.88066642  0.91168207  0.06757114    -0.03200
H3116       H  0.87256651  0.92561523  0.00068437     0.08900
H3117       H  0.88839165  0.01891591  0.05504816     0.06900
Br3118     Br  0.88304574  0.03503513  0.99084809    -0.03700
C3119       C  0.75875975  0.92154353  0.84773390    -0.10300
C3120       C  0.78462995  0.90754824  0.85096982     0.05900
C3121       C  0.78559733  0.87751826  0.85241586    -0.04100
C3122       C  0.76060683  0.86223537  0.85540140    -0.08500
C3123       C  0.73490354  0.87662844  0.85643589     0.05000
C3124       C  0.73363487  0.90612398  0.85031929    -0.03500
Br3125     Br  0.69890248  0.92707568  0.85097955    -0.03200
H3126       H  0.75811040  0.94474301  0.84677470     0.08900
H3127       H  0.76139053  0.83946872  0.86002765     0.06900
Br3128     Br  0.81997753  0.85666361  0.85685040    -0.03700
C3129       C  0.94007939  0.52466262  0.82658769    -0.10300
C3130       C  0.93625186  0.00191961  0.85780749     0.05900
C3131       C  0.95804395  0.00764226  0.87984216    -0.04100
C3132       C  0.98762590  0.50052170  0.85403992    -0.08500
C3133       C  0.99155226  0.51969583  0.82883556     0.05000
C3134       C  0.96707909  0.53178434  0.81505458    -0.03500
Br3135     Br  0.96832079  0.55829223  0.78070159    -0.03200
H3136       H  0.92165639  0.53349960  0.81528649     0.08900
H3137       H  0.50589483  0.50761179  0.87675949     0.06900
Br3138     Br  0.95252179  0.00607931  0.92477321    -0.03700
C3139       C  0.89231882  0.85433481  0.89649036    -0.10300
C3140       C  0.88785624  0.87454999  0.87281964     0.05900
C3141       C  0.89112141  0.86556173  0.84084624    -0.04100
C3142       C  0.89838187  0.83719970  0.83334002    -0.08500
C3143       C  0.90313968  0.81698038  0.85688264     0.05000
C3144       C  0.90029754  0.82602016  0.88898727    -0.03500
Br3145     Br  0.90585875  0.80099606  0.92413060    -0.03200
H3146       H  0.88950039  0.86058984  0.92103667     0.08900
H3147       H  0.90035481  0.83093833  0.80869083     0.06900
Br3148     Br  0.88331907  0.88970686  0.80559114    -0.03700
C3149       C  0.89901044  0.62892171  0.70527496    -0.10300
C3150       C  0.86987165  0.62240182  0.70773344     0.05900
C3151       C  0.85495735  0.63661192  0.73261799    -0.04100
C3152       C  0.86898577  0.65591794  0.75369502    -0.08500
C3153       C  0.89817352  0.66229176  0.75133373     0.05000
C3154       C  0.91299063  0.64836335  0.72617351    -0.03500
Br3155     Br  0.95254084  0.65458519  0.71810058    -0.03200
H3156       H  0.91135215  0.61862830  0.68682876     0.08900
H3157       H  0.85667003  0.66621797  0.77215740     0.06900
Br3158     Br  0.81525542  0.63084207  0.73999611    -0.03700
C3159       C  0.90893154  0.54966710  0.55009587    -0.10300
C3160       C  0.89321308  0.57201861  0.56344048     0.05900
C3161       C  0.88620679  0.59577679  0.54494163    -0.04100
C3162       C  0.89220991  0.59541847  0.51271014    -0.08500
C3163       C  0.90516171  0.57153470  0.49847858     0.05000
C3164       C  0.91483839  0.54909210  0.51780681    -0.03500
Br3165     Br  0.93594620  0.51682644  0.50222652    -0.03200
H3166       H  0.91417277  0.53117976  0.56413843     0.08900
H3167       H  0.88582215  0.61343684  0.49855607     0.06900
Br3168     Br  0.86618606  0.62799135  0.56237952    -0.03700
C3169       C  0.80555877  0.51446354  0.79191344    -0.10300
C3170       C  0.82707839  0.52718243  0.81043447     0.05900
C3171       C  0.85221535  0.04093683  0.79630853    -0.04100
C3172       C  0.85173266  0.04542796  0.76385647    -0.08500
C3173       C  0.82754950  0.53251968  0.74457966     0.05000
C3174       C  0.80558953  0.51704743  0.75913387    -0.03500
Br3175     Br  0.77700677  0.49656493  0.73557177    -0.03200
H3176       H  0.79052999  0.49987098  0.80263198     0.08900
H3177       H  0.86828608  0.05838510  0.75337149     0.06900
Br3178     Br  0.88353486  0.05669331  0.81979713    -0.03700
C3179       C  0.62523227  0.66070699  0.71049107    -0.10300
C3180       C  0.65466525  0.66050023  0.70525514     0.05900
C3181       C  0.67023291  0.63829931  0.71979572    -0.04100
C3182       C  0.65673634  0.61837617  0.73986718    -0.08500
C3183       C  0.62740322  0.61913296  0.74590483     0.05000
C3184       C  0.61168429  0.64068098  0.73032360    -0.03500
Br3185     Br  0.57163174  0.64531558  0.73591510    -0.03200
H3186       H  0.61258497  0.67725521  0.69983140     0.08900
H3187       H  0.66933194  0.60167295  0.75030560     0.06900
Br3188     Br  0.70980099  0.63252260  0.71170767    -0.03700
C3189       C  0.65400760  0.69205087  0.54396105    -0.10300
C3190       C  0.64133551  0.71297941  0.56349066     0.05900
C3191       C  0.62160757  0.73193291  0.55058600    -0.04100
C3192       C  0.61769025  0.73204689  0.51796667    -0.08500
C3193       C  0.63316767  0.71347854  0.49819972     0.05000
C3194       C  0.65070898  0.69268599  0.51138227    -0.03500
Br3195     Br  0.67376284  0.66761199  0.48596634    -0.03200
H3196       H  0.66945757  0.67754154  0.55371092     0.08900
H3197       H  0.60298715  0.74714673  0.50791877     0.06900
Br3198     Br  0.60219135  0.76029841  0.57558696    -0.03700
C3199       C  0.71831475  0.76415308  0.76651099    -0.10300
C3200       C  0.69464941  0.75301616  0.75038350     0.05900
C3201       C  0.67096895  0.74359826  0.76812933    -0.04100
C3202       C  0.67045824  0.74769806  0.80074011    -0.08500
C3203       C  0.69264781  0.76184878  0.81614592     0.05000
C3204       C  0.71732985  0.76883391  0.79918609    -0.03500
Br3205     Br  0.74935782  0.78633717  0.81968184    -0.03200
H3206       H  0.73715093  0.77026976  0.75358229     0.08900
H3207       H  0.65129817  0.74249634  0.81361980     0.06900
Br3208     Br  0.63801477  0.72545992  0.75018034    -0.03700
C3209       C  0.78240943  0.63633540  0.57759410    -0.10300
C3210       C  0.77117730  0.61221528  0.59250547     0.05900
C3211       C  0.74249994  0.61171740  0.60124346    -0.04100
C3212       C  0.72768461  0.63716913  0.60219860    -0.08500
C3213       C  0.74125488  0.66269573  0.59408012     0.05000
C3214       C  0.76680009  0.66160491  0.57707787    -0.03500
Br3215     Br  0.78171483  0.69383366  0.55490419    -0.03200
H3216       H  0.80388088  0.63622532  0.56875717     0.08900
H3217       H  0.70696275  0.63759409  0.61321289     0.06900
Br3218     Br  0.72371185  0.57848678  0.61703946    -0.03700
C3219       C  0.01309522  0.79354668  0.48511697    -0.10300
C3220       C  0.99754491  0.77622348  0.50619633     0.05900
C3221       C  0.50481775  0.74610207  0.50435684    -0.04100
C3222       C  0.52538190  0.73506074  0.48295084    -0.08500
C3223       C  0.53995979  0.75250207  0.46108878     0.05000
C3224       C  0.53283393  0.78209763  0.46159264    -0.03500
Br3225     Br  0.05117032  0.80949290  0.43627427    -0.03200
H3226       H  0.00950040  0.81644910  0.48518553     0.08900
H3227       H  0.52997423  0.71236366  0.48352033     0.06900
Br3228     Br  0.48643627  0.71887604  0.53118555    -0.03700
C3229       C  0.89712580  0.84827437  0.45439180    -0.10300
C3230       C  0.90880277  0.82293495  0.46612206     0.05900
C3231       C  0.91881356  0.80196794  0.44448842    -0.04100
C3232       C  0.91431986  0.80530033  0.41220131    -0.08500
C3233       C  0.89951064  0.82893198  0.40101900     0.05000
C3234       C  0.89246081  0.85138423  0.42209056    -0.03500
Br3235     Br  0.87439885  0.88561183  0.40785527    -0.03200
H3236       H  0.89070477  0.86531589  0.47045911     0.08900
H3237       H  0.91980233  0.78786820  0.39617340     0.06900
Br3238     Br  0.93859012  0.76817102  0.45686225    -0.03700
C3239       C  0.96320608  0.77036677  0.67070706    -0.10300
C3240       C  0.94078901  0.75978268  0.65200476     0.05900
C3241       C  0.91947868  0.74338007  0.66643675    -0.04100
C3242       C  0.91899072  0.74088182  0.69927276    -0.08500
C3243       C  0.93974265  0.75427402  0.71820557     0.05000
C3244       C  0.96273083  0.76809023  0.70353214    -0.03500
Br3245     Br  0.99232725  0.78719333  0.72691834    -0.03200
H3246       H  0.97952898  0.78340856  0.66002587     0.08900
H3247       H  0.90207448  0.72864604  0.71007872     0.06900
Br3248     Br  0.88901941  0.72640051  0.64306412    -0.03700
C3249       C  0.82198657  0.80330998  0.61582448    -0.10300
C3250       C  0.83906330  0.78387243  0.59871080     0.05900
C3251       C  0.83023760  0.75500519  0.59623674    -0.04100
C3252       C  0.80570687  0.74595672  0.61209840    -0.08500
C3253       C  0.78848247  0.76551431  0.62861349     0.05000
C3254       C  0.79664139  0.79451298  0.63000352    -0.03500
Br3255     Br  0.77434707  0.82255109  0.65213127    -0.03200
H3256       H  0.82853759  0.82552553  0.61839142     0.08900
H3257       H  0.79942314  0.72365515  0.61059643     0.06900
Br3258     Br  0.85087361  0.72704303  0.57191441    -0.03700
C3259       C  0.89573140  0.92020297  0.62182670    -0.10300
C3260       C  0.89525787  0.91210771  0.58967671     0.05900
C3261       C  0.88508509  0.93172774  0.56766277    -0.04100
C3262       C  0.87534306  0.95871251  0.57795973    -0.08500
C3263       C  0.87560435  0.96705889  0.61029498     0.05000
C3264       C  0.88631643  0.94727968  0.63226403    -0.03500
Br3265     Br  0.88815128  0.95514169  0.67687398    -0.03200
H3266       H  0.90361412  0.90526001  0.63905569     0.08900
H3267       H  0.86737817  0.97321364  0.56034773     0.06900
Br3268     Br  0.88268982  0.92189409  0.52359687    -0.03700
C3269       C  0.00894439  0.54377403  0.48475710    -0.10300
C3270       C  0.99852075  0.53079409  0.45669541     0.05900
C3271       C  0.51043314  0.50318699  0.44745543    -0.04100
C3272       C  0.52939967  0.48915551  0.46803697    -0.08500
C3273       C  0.53870556  0.50173169  0.49680362     0.05000
C3274       C  0.52831174  0.52960469  0.50408942    -0.03500
Br3275     Br  0.03998088  0.55124315  0.54196819    -0.03200
H3276       H  0.00129318  0.56477124  0.49169329     0.08900
H3277       H  0.53741298  0.46831742  0.46101715     0.06900
Br3278     Br  0.50179539  0.48386612  0.40825755    -0.03700
C3279       C  0.60490100  0.53928442  0.68932843    -0.10300
C3280       C  0.58385550  0.52644049  0.70799655     0.05900
C3281       C  0.56095304  0.51231628  0.69314191    -0.04100
C3282       C  0.56131045  0.50829718  0.66049496    -0.08500
C3283       C  0.58429219  0.51788298  0.64234085     0.05000
C3284       C  0.60494367  0.53561588  0.65654440    -0.03500
Br3285     Br  0.63496497  0.55310785  0.63285077    -0.03200
H3286       H  0.62151115  0.55207086  0.70030798     0.08900
H3287       H  0.54774664  0.98500833  0.65843433     0.06900
Br3288     Br  0.53028773  0.49521234  0.71612720    -0.03700
C3289       C  0.64448188  0.99468161  0.45390495    -0.10300
C3290       C  0.63235783  0.96840091  0.46231079     0.05900
C3291       C  0.62575144  0.94807547  0.43808403    -0.04100
C3292       C  0.63285075  0.95395327  0.40658428    -0.08500
C3293       C  0.64588890  0.97994219  0.39886235     0.05000
C3294       C  0.65096644  0.00064725  0.42278931    -0.03500
Br3295     Br  0.69195589  0.51673369  0.42482008    -0.03200
H3296       H  0.66559546  0.49027566  0.47648582     0.08900
H3297       H  0.62935015  0.93775336  0.38838291     0.06900
Br3298     Br  0.60670695  0.91236394  0.44573001    -0.03700
C3299       C  0.98871831  0.90173700  0.62008294    -0.10300
C3300       C  0.99167573  0.87198953  0.62201044     0.05900
C3301       C  0.51969493  0.85925718  0.62264946    -0.04100
C3302       C  0.54328698  0.87628350  0.61713957    -0.08500
C3303       C  0.53964118  0.90487786  0.60856641     0.05000
C3304       C  0.51317590  0.91804018  0.61135161    -0.03500
Br3305     Br  0.50767216  0.95780656  0.60215235    -0.03200
H3306       H  0.96786584  0.91119086  0.61858332     0.08900
H3307       H  0.56399003  0.86646187  0.61587470     0.06900
Br3308     Br  0.52454443  0.81876300  0.62734778    -0.03700
C3309       C  0.72482391  0.00713995  0.64326201    -0.10300
C3310       C  0.74549680  0.50890689  0.61764146     0.05900
C3311       C  0.73867800  0.50304182  0.58555819    -0.04100
C3312       C  0.71125364  0.49453343  0.57706990    -0.08500
C3313       C  0.68995430  0.99493719  0.60246285     0.05000
C3314       C  0.69688951  0.00052338  0.63460055    -0.03500
Br3315     Br  0.66930107  0.00115216  0.66797018    -0.03200
H3316       H  0.72939037  0.01302441  0.66759718     0.08900
H3317       H  0.70645619  0.49074724  0.55232284     0.06900
Br3318     Br  0.76477915  0.50820088  0.55130312    -0.03700
C3319       C  0.64790720  0.86898993  0.61702282    -0.10300
C3320       C  0.64279098  0.87181604  0.58431499     0.05900
C3321       C  0.64719439  0.84786002  0.56447473    -0.04100
C3322       C  0.65642232  0.82193394  0.57741501    -0.08500
C3323       C  0.66113514  0.81900615  0.61022994     0.05000
C3324       C  0.65686557  0.84305782  0.63000717    -0.03500
Br3325     Br  0.66459972  0.84236329  0.67448391    -0.03200
H3326       H  0.64463549  0.88712251  0.63284953     0.08900
H3327       H  0.65987704  0.80381989  0.56160566     0.06900
Br3328     Br  0.64258184  0.84993390  0.51955571    -0.03700
loop_ 
_geom_bond_atom_site_label_1 
_geom_bond_atom_site_label_2 
_geom_bond_distance 
_geom_bond_site_symmetry_2 
_ccdc_geom_bond_type 
O1           C16   1.275       .  A
O1           Al9   1.987       .  S
C2           O12   1.255       .  A
C2            O3   1.267       .  A
C2          C817   1.492       .  S
O3           Al5   1.931       .  S
O4            C6   1.267       .  A
O4           Al5   1.894       .  S
Al5         O845   1.934       .  S
Al5         O847   1.930       .  S
Al5          O14   1.773       .  S
C6           O19   1.263       .  A
C6          C794   1.471       .  S
O7           C17   1.281       .  A
O7           Al9   2.004       .  S
O8           C21   1.254       .  A
O8          Al18   1.891       .  S
Al9          O22   1.879       .  S
Al9          O19   1.893       .  S
Al9          O14   1.778       .  S
O10          C17   1.260       .  A
O10         Al18   1.879       .  S
O11          C20   1.255       .  A
O11         Al18   1.850       .  S
O12         Al18   1.903       .  S
O13         C852   1.270   1_545  A
O13        Al837   1.949   1_545  S
O14         Al18   1.780       .  S
O15         C848   1.268   1_545  A
O15        Al837   1.936   1_545  S
C16         O847   1.266       .  A
C16        C1609   1.535       .  S
C17         C824   1.506       .  S
C20         O845   1.267       .  A
C20        C1619   1.459       .  S
C21          O22   1.259       .  A
C21         C807   1.438       .  S
O23          C38   1.267       .  A
O23         Al31   1.957       .  S
C24          O34   1.257       .  A
C24          O25   1.268       .  A
C24         C754   1.491       .  S
O25         Al27   1.936       .  S
O26          C28   1.271       .  A
O26         Al27   1.934       .  S
Al27         O35   1.944       .  S
Al27         O37   1.948       .  S
Al27         O36   1.788       .  S
C28          O41   1.264       .  A
C28         C734   1.477       .  S
O29          C39   1.273       .  A
O29         Al31   1.980       .  S
O30          C43   1.256       .  A
O30         Al40   1.892       .  S
Al31         O44   1.869       .  S
Al31         O41   1.870       .  S
Al31         O36   1.773       .  S
O32          C39   1.260       .  A
O32         Al40   1.894       .  S
O33          C42   1.251       .  A
O33         Al40   1.840       .  S
O34         Al40   1.887       .  S
O35          C42   1.268       .  A
O36         Al40   1.783       .  S
O37          C38   1.268       .  A
C38         C724   1.529       .  S
C39         C764   1.500       .  S
C42         C744   1.460       .  S
C43          O44   1.259       .  A
C43         C804   1.434       .  S
O45          C60   1.265       .  A
O45         Al53   1.874       .  S
C46          O56   1.266       .  A
C46          O47   1.253       .  A
C46         C827   1.492       .  S
O47         Al49   1.888       .  S
O48          C50   1.259       .  A
O48         Al49   1.896       .  S
Al49         O57   1.830       .  S
Al49         O59   1.908       .  S
Al49         O58   1.784       .  S
C50          O63   1.269       .  A
C50         C757   1.482       .  S
O51          C61   1.268       .  A
O51         Al53   1.878       .  S
O52          C65   1.265       .  A
O52         Al62   1.946       .  S
Al53         O66   1.935       .  S
Al53         O63   1.963       .  S
Al53         O58   1.778       .  S
O54          C61   1.274       .  A
O54         Al62   1.928       .  S
O55          C64   1.270       .  A
O55         Al62   1.940       .  S
O56         Al62   1.942       .  S
O57          C64   1.252       .  A
O58         Al62   1.780       .  S
O59          C60   1.259       .  A
C60         C717   1.455       .  S
C61         C704   1.472       .  S
C64         C694   1.462       .  S
C65          O66   1.259       .  A
C65         C684   1.522       .  S
O67          C82   1.262       .  A
O67         Al75   1.894       .  S
C68         O910   1.270       .  A
C68         O901   1.261       .  A
C68         C767   1.513       .  S
O69         C900   1.259   1_545  A
O69         Al71   1.910       .  S
O70          C72   1.262       .  A
O70         Al71   1.894       .  S
Al71         O79   1.847       .  S
Al71         O81   1.901       .  S
Al71         O80   1.779       .  S
C72          O85   1.277       .  A
C72         C814   1.493       .  S
O73          C83   1.257       .  A
O73         Al75   1.863       .  S
O74          C87   1.267       .  A
O74         Al84   1.929       .  S
Al75         O88   1.973       .  S
Al75         O85   1.969       .  S
Al75         O80   1.769       .  S
O76          C83   1.267       .  A
O76         Al84   1.915       .  S
O77          C86   1.268       .  A
O77         Al84   1.933       .  S
O78         C900   1.267   1_545  A
O78         Al84   1.938       .  S
O79          C86   1.254       .  A
O80         Al84   1.783       .  S
O81          C82   1.253       .  A
C82         C714   1.447       .  S
C83         C677   1.462       .  S
C86         C664   1.446       .  S
C87          O88   1.271       .  A
C87         C654   1.531       .  S
O89         C104   1.257       .  A
O89         Al97   1.877       .  S
C90         O100   1.268       .  A
C90          O91   1.263       .  A
C90         C634   1.490       .  S
O91         Al93   1.924       .  S
O92          C94   1.260       .  A
O92         Al93   1.890       .  S
Al93        O101   1.850       .  S
Al93        O103   1.904       .  S
Al93        O102   1.773       .  S
C94         O107   1.277       .  A
C94         C644   1.499       .  S
O95         C105   1.262       .  A
O95         Al97   1.880       .  S
O96         C941   1.267   1_545  A
O96        Al938   1.929       .  S
Al97        O110   1.969       .  S
Al97        O107   1.981       .  S
Al97        O102   1.766       .  S
O98         C105   1.263       .  A
O98        Al106   1.911       .  S
O99         C940   1.265       .  A
O99        Al938   1.937       .  S
O100       Al106   1.925       .  S
O101        C108   1.252       .  A
O102       Al106   1.782       .  S
O103        C104   1.256       .  A
C104        C624   1.444       .  S
C105        C614   1.479       .  S
Al106       O928   1.933       .  S
Al106       O931   1.942       .  S
C108        O931   1.266       .  A
C108       C1506   1.461       .  S
C109        O110   1.274       .  A
C109        O928   1.269       .  A
C109       C1436   1.525       .  S
O111        C126   1.255       .  A
O111       Al119   1.867       .  S
C112        O122   1.272       .  A
C112        O113   1.259       .  A
C112        C587   1.504       .  S
O113       Al115   1.911       .  S
O114        C116   1.257       .  A
O114       Al115   1.879       .  S
Al115       O123   1.863       .  S
Al115       O125   1.904       .  S
Al115       O124   1.777       .  S
C116        O129   1.281       .  A
C116        C594   1.501       .  S
O117        C127   1.264       .  A
O117       Al119   1.891       .  S
O118        C131   1.272       .  A
O118       Al128   1.935       .  S
Al119       O132   1.970       .  S
Al119       O129   1.992       .  S
Al119       O124   1.770       .  S
O120        C127   1.262       .  A
O120       Al128   1.912       .  S
O121        C130   1.268       .  A
O121       Al128   1.942       .  S
O122       Al128   1.946       .  S
O123        C130   1.254       .  A
O124       Al128   1.779       .  S
O125        C126   1.253       .  A
C126        C627   1.443       .  S
C127        C574   1.487       .  S
C130        C707   1.456       .  S
C131        O132   1.273       .  A
C131        C564   1.522       .  S
O133        C148   1.265       .  A
O133       Al141   1.947       .  S
C134        O976   1.252       .  A
C134        O967   1.269       .  A
C134        C597   1.496       .  S
O135        C966   1.268   1_545  A
O135       Al137   1.939       .  S
O136        C138   1.271       .  A
O136       Al137   1.930       .  S
Al137       O145   1.951       .  S
Al137       O147   1.939       .  S
Al137       O146   1.780       .  S
C138        O151   1.259       .  A
C138        C784   1.460       .  S
O139        C149   1.270       .  A
O139       Al141   1.954       .  S
O140        C153   1.256       .  A
O140       Al150   1.896       .  S
Al141       O154   1.881       .  S
Al141       O151   1.867       .  S
Al141       O146   1.773       .  S
O142        C149   1.262       .  A
O142       Al150   1.888       .  S
O143        C152   1.254       .  A
O143       Al150   1.845       .  S
O144        C966   1.257   1_545  A
O144       Al150   1.906       .  S
O145        C152   1.271       .  A
O146       Al150   1.779       .  S
O147        C148   1.269       .  A
C148        C687   1.521       .  S
C149       C2301   1.480   1_455  S
C152        C544   1.470       .  S
C153        O154   1.260       .  A
C153        C557   1.438       .  S
O155        C170   1.268       .  A
O155       Al163   1.959       .  S
C156        O166   1.257       .  A
C156        O157   1.270       .  A
C156        C647   1.505       .  S
O157       Al159   1.941       .  S
O158        C160   1.270       .  A
O158       Al159   1.917       .  S
Al159       O167   1.940       .  S
Al159       O169   1.948       .  S
Al159       O168   1.784       .  S
C160        O173   1.260       .  A
C160        C747   1.464       .  S
O161       C1835   1.274       .  A
O161       Al163   1.974       .  S
O162        C175   1.256       .  A
O162       Al172   1.899       .  S
Al163       O176   1.875       .  S
Al163       O173   1.872       .  S
Al163       O168   1.771       .  S
O164       C1835   1.261       .  A
O164       Al172   1.891       .  S
O165        C174   1.251       .  A
O165       Al172   1.833       .  S
O166       Al172   1.907       .  S
O167        C174   1.267       .  A
O168       Al172   1.779       .  S
O169        C170   1.269       .  A
C170        C657   1.531       .  S
C171       O1825   1.274   1_455  A
C171       O1828   1.261   1_455  A
C171        C584   1.494       .  S
C174        C537   1.456       .  S
C175        O176   1.258       .  A
C175        C554   1.440       .  S
O177        C192   1.267       .  A
O177       Al185   1.952       .  S
C178        O188   1.258       .  A
C178        O179   1.266       .  A
C178        C514   1.503       .  S
O179       Al181   1.935       .  S
O180        C182   1.269   1_554  A
O180       Al181   1.911       .  S
Al181       O189   1.940       .  S
Al181       O191   1.945       .  S
Al181       O190   1.787       .  S
C182        O195   1.263   1_556  A
C182        C534   1.466       .  S
O183        C193   1.273       .  A
O183       Al185   1.976       .  S
O184        C197   1.259       .  A
O184       Al194   1.916       .  S
Al185       O198   1.872       .  S
Al185       O195   1.876       .  S
Al185       O190   1.772       .  S
O186        C193   1.259       .  A
O186       Al194   1.891       .  S
O187        C196   1.254       .  A
O187       Al194   1.840       .  S
O188       Al194   1.896       .  S
O189        C196   1.267       .  A
O190       Al194   1.777       .  S
O191        C192   1.269       .  A
C192        C567   1.524   1_554  S
C193        C524   1.493       .  S
C196        C494   1.455       .  S
C197        O198   1.261       .  A
C197        C507   1.458       .  S
O199        C214   1.257       .  A
O199       Al207   1.880       .  S
C200        O210   1.271       .  A
C200        O201   1.258       .  A
C200        C484   1.499       .  S
O201       Al203   1.906       .  S
O202        C204   1.260       .  A
O202       Al203   1.881       .  S
Al203       O211   1.858       .  S
Al203       O213   1.891       .  S
Al203       O212   1.777       .  S
C204        O217   1.277       .  A
C204       C2181   1.494   1_455  S
O205        C215   1.262       .  A
O205       Al207   1.887       .  S
O206        C219   1.270       .  A
O206       Al216   1.938       .  S
Al207       O220   1.963       .  S
Al207       O217   1.987       .  S
Al207       O212   1.773       .  S
O208        C215   1.269       .  A
O208       Al216   1.925       .  S
O209        C218   1.269       .  A
O209       Al216   1.956       .  S
O210       Al216   1.939       .  S
O211        C218   1.253       .  A
O212       Al216   1.781       .  S
O213        C214   1.255       .  A
C214        C474   1.446       .  S
C215        C464   1.478       .  S
C218        C577   1.463       .  S
C219        O220   1.272       .  A
C219        C454   1.528       .  S
O221        C236   1.276       .  A
O221       Al229   1.974       .  S
C222        O232   1.262       .  A
C222        O223   1.269       .  A
C222        C444   1.500       .  S
O223       Al225   1.935       .  S
O224        C226   1.266   1_554  A
O224       Al225   1.927       .  S
Al225       O233   1.948       .  S
Al225       O235   1.917       .  S
Al225       O234   1.781       .  S
C226        O239   1.254   1_556  A
C226        C547   1.469       .  S
O227        C237   1.277       .  A
O227       Al229   1.968       .  S
O228        C241   1.254       .  A
O228       Al238   1.910       .  S
Al229       O242   1.881       .  S
Al229       O239   1.867       .  S
Al229       O234   1.764       .  S
O230        C237   1.259       .  A
O230       Al238   1.882       .  S
O231        C240   1.256       .  A
O231       Al238   1.854       .  S
O232       Al238   1.913       .  S
O233        C240   1.269       .  A
O234       Al238   1.777       .  S
O235        C236   1.266       .  A
C236        C607   1.520       .  S
C237        C487   1.490       .  S
C240        C434   1.459       .  S
C241        O242   1.257       .  A
C241        C504   1.450       .  S
O243        C258   1.259       .  A
O243       Al251   1.880       .  S
C244        O254   1.269       .  A
C244        O245   1.260       .  A
C244        C527   1.487       .  S
O245      Al1079   1.908   1_545  S
O246       C1912   1.262       .  A
O246      Al1079   1.892   1_545  S
Al247       O255   1.845       .  S
Al247       O257   1.896       .  S
Al247      O1077   1.903       .  S
Al247      O1078   1.889       .  S
Al247       O256   1.777       .  S
C248       O1910   1.261   1_455  A
C248       O1093   1.270   1_545  A
C248        C447   1.479       .  S
O249       C1091   1.262       .  A
O249       Al251   1.870       .  S
O250        C263   1.269       .  A
O250       Al260   1.950       .  S
Al251       O264   1.947       .  S
Al251      O1925   1.973       .  S
Al251       O256   1.771       .  S
O252        C259   1.266       .  A
O252      Al1092   1.915   1_545  S
O253        C262   1.266       .  A
O253       Al260   1.940       .  S
O254      Al1092   1.936   1_545  S
O255        C262   1.251       .  A
O256       Al260   1.786       .  S
O257        C258   1.257       .  A
C258        C477   1.438       .  S
C259       O1081   1.260   1_545  A
C259        C424   1.465       .  S
Al260      O1084   1.922       .  S
Al260      O1086   1.926       .  S
O261       C1080   1.273   1_655  A
O261      Al1915   1.975       .  S
C262        C617   1.449       .  S
C263        O264   1.267       .  A
C263        C414   1.525       .  S
O265        C280   1.259       .  A
O265       Al273   1.886       .  S
C266        O276   1.269       .  A
C266        O267   1.259       .  A
C266        C407   1.486       .  S
O267       Al269   1.907       .  S
O268        C270   1.261       .  A
O268       Al269   1.885       .  S
Al269       O277   1.854       .  S
Al269       O279   1.889       .  S
Al269       O278   1.772       .  S
C270        O283   1.277       .  A
C270        C394   1.498       .  S
O271        C281   1.258       .  A
O271       Al273   1.861       .  S
O272        C285   1.265       .  A
O272       Al282   1.925       .  S
Al273       O286   1.982       .  S
Al273       O283   1.986       .  S
Al273       O278   1.771       .  S
O274        C281   1.265       .  A
O274       Al282   1.916       .  S
O275        C284   1.266       .  A
O275       Al282   1.926       .  S
O276       Al282   1.936       .  S
O277        C284   1.253       .  A
O278       Al282   1.786       .  S
O279        C280   1.253       .  A
C280        C384   1.439       .  S
C281        C667   1.464       .  S
C284        C427   1.447       .  S
C285        O286   1.275       .  A
C285        C774   1.530       .  S
O287        C302   1.259       .  A
O287       Al295   1.860       .  S
C288        O298   1.267       .  A
C288        O289   1.256       .  A
C288        C364   1.490       .  S
O289       Al291   1.880       .  S
O290        C292   1.260       .  A
O290       Al291   1.887       .  S
Al291       O299   1.844       .  S
Al291       O301   1.897       .  S
Al291       O300   1.776       .  S
C292        O305   1.272       .  A
C292        C377   1.500       .  S
O293        C303   1.258       .  A
O293       Al295   1.868       .  S
O294        C307   1.269       .  A
O294       Al304   1.939       .  S
Al295       O308   1.966       .  S
Al295       O305   1.968       .  S
Al295       O300   1.764       .  S
O296        C303   1.269       .  A
O296       Al304   1.926       .  S
O297        C306   1.271       .  A
O297       Al304   1.958       .  S
O298       Al304   1.936       .  S
O299        C306   1.253       .  A
O300       Al304   1.779       .  S
O301        C302   1.254       .  A
C302        C387   1.440       .  S
C303        C697   1.458       .  S
C306        C467   1.464       .  S
C307        O308   1.271       .  A
C307        C727   1.529       .  S
O309        C324   1.271       .  A
O309       Al317   1.961       .  S
C310        O320   1.261       .  A
C310        O311   1.272       .  A
C310        C397   1.506       .  S
O311       Al313   1.949       .  S
O312        C314   1.268       .  A
O312       Al313   1.925       .  S
Al313       O321   1.949       .  S
Al313       O323   1.943       .  S
Al313       O322   1.782       .  S
C314        O327   1.258       .  A
C314        C497   1.476       .  S
O315        C325   1.272       .  A
O315       Al317   1.954       .  S
O316        C329   1.253       .  A
O316       Al326   1.896       .  S
Al317       O330   1.879       .  S
Al317       O327   1.872       .  S
Al317       O322   1.771       .  S
O318        C325   1.260       .  A
O318       Al326   1.881       .  S
O319        C328   1.253       .  A
O319       Al326   1.854       .  S
O320       Al326   1.913       .  S
O321        C328   1.269       .  A
O322       Al326   1.778       .  S
O323        C324   1.272       .  A
C324        C417   1.526       .  S
C325        C367   1.480       .  S
C328        C737   1.456       .  S
C329        O330   1.259       .  A
C329        C354   1.440       .  S
O331        C346   1.268       .  A
O331       Al339   1.960       .  S
C332        O342   1.254       .  A
C332        O333   1.262       .  A
C332        C374   1.480       .  S
O333      Al1167   1.925   1_545  S
O334        C336   1.279       .  A
O334      Al1167   1.941       .  S
Al335       O343   1.972       .  S
Al335       O345   1.944       .  S
Al335      O1165   1.934       .  S
Al335      O1166   1.948       .  S
Al335       O344   1.778       .  S
C336       O1181   1.265       .  A
C336        C437   1.466       .  S
O337       C1179   1.272       .  A
O337       Al339   1.983       .  S
O338        C351   1.263       .  A
O338       Al348   1.921       .  S
Al339       O352   1.854       .  S
Al339       O349   1.864       .  S
Al339       O344   1.774       .  S
O340       C1179   1.256       .  A
O340       Al348   1.888       .  S
O341        C350   1.249       .  A
O341       Al348   1.835       .  S
O342      Al1180   1.890       .  S
O343        C350   1.274       .  A
O344       Al348   1.771       .  S
O345        C346   1.267       .  A
C346        C457   1.529       .  S
C347       O1169   1.270   1_545  A
C347       O1172   1.255       .  A
C347        C404   1.498       .  S
Al348      O1174   1.901       .  S
O349       C1168   1.264       .  A
C350        C797   1.467       .  S
C351        O352   1.262       .  A
C351        C357   1.453       .  S
C353        C354   1.397       .  A
C353        C358   1.392       .  A
C353        H360   1.083       .  S
C354        C355   1.402       .  A
C355        C356   1.382       .  A
C355       Br362   1.915       .  S
C356        C357   1.399       .  A
C356        H361   1.085       .  S
C357        C358   1.406       .  A
C358       Br359   1.914       .  S
C363        C364   1.412       .  A
C363        C368   1.394       .  A
C363        H370   1.083       .  S
C364        C365   1.411       .  A
C365        C366   1.405       .  A
C365       Br372   1.919       .  S
C366        C367   1.410       .  A
C366        H371   1.084       .  S
C367        C368   1.402       .  A
C368       Br369   1.911       .  S
C373        C374   1.402       .  A
C373        C378   1.403       .  A
C373        H380   1.084       .  S
C374        C375   1.403       .  A
C375        C376   1.405       .  A
C375       Br382   1.914       .  S
C376        C377   1.415       .  A
C376        H381   1.083       .  S
C377        C378   1.418       .  A
C378       Br379   1.922       .  S
C383        C388   1.390       .  A
C383       C2048   1.396   1_455  A
C383        H390   1.083       .  S
C384        C385   1.404       .  A
C384       C2047   1.397       .  A
C385       C2050   1.381       .  A
C385       Br392   1.914       .  S
C386        C387   1.394       .  A
C386       C2049   1.381   1_455  A
C386        H391   1.085       .  S
C387        C388   1.405       .  A
C388       Br389   1.917       .  S
C393        C394   1.411       .  A
C393        C398   1.407       .  A
C393        H400   1.083       .  S
C394        C395   1.407       .  A
C395        C396   1.409       .  A
C395       Br402   1.918       .  S
C396        C397   1.418       .  A
C396        H401   1.083       .  S
C397        C398   1.412       .  A
C398       Br399   1.919       .  S
C403        C404   1.410   1_565  A
C403        C408   1.410   1_565  A
C403       H1242   1.083       .  S
C404        C405   1.415       .  A
C405        C406   1.403       .  A
C405       Br412   1.915       .  S
C406        C407   1.403       .  A
C406        H411   1.084       .  S
C407        C408   1.409       .  A
C408      Br1241   1.918   1_545  S
Br409      C1240   1.918       .  S
H410       C1235   1.082       .  S
C413        C414   1.414       .  A
C413        C418   1.413       .  A
C413        H420   1.083       .  S
C414        C415   1.419       .  A
C415        C416   1.419       .  A
C415       Br422   1.919       .  S
C416        C417   1.417       .  A
C416        H421   1.083       .  S
C417        C418   1.418       .  A
C418       Br419   1.919       .  S
C423        C424   1.404       .  A
C423        C428   1.391       .  A
C423       H1262   1.084       .  S
C424        C425   1.417   1_545  A
C425        C426   1.389       .  A
C425       Br432   1.923       .  S
C426        C427   1.396   1_565  A
C426        H431   1.083       .  S
C427        C428   1.404       .  A
C428      Br1261   1.918       .  S
Br429      C1260   1.918       .  S
H430       C1255   1.084       .  S
C433        C434   1.404       .  A
C433        C438   1.393       .  A
C433        H440   1.084       .  S
C434        C435   1.407   1_545  A
C435        C436   1.393       .  A
C435       Br442   1.920       .  S
C436        C437   1.404       .  A
C436        H441   1.084       .  S
C437        C438   1.410   1_565  A
C438       Br439   1.922       .  S
C443        C444   1.417       .  A
C443        C448   1.404       .  A
C443        H450   1.083       .  S
C444        C445   1.415       .  A
C445        C446   1.404       .  A
C445      Br1284   1.920   1_545  S
C446        C447   1.405       .  A
C446       H1283   1.084   1_545  S
C447        C448   1.400       .  A
C448       Br449   1.917       .  S
H451       C1278   1.083       .  S
Br452      C1277   1.919       .  S
C453        C454   1.414       .  A
C453        C458   1.416       .  A
C453        H460   1.083       .  S
C454        C455   1.422       .  A
C455        C456   1.417       .  A
C455       Br462   1.921       .  S
C456        C457   1.414       .  A
C456        H461   1.083       .  S
C457        C458   1.421       .  A
C458       Br459   1.920       .  S
C463        C464   1.408       .  A
C463        C468   1.397       .  A
C463        H470   1.084       .  S
C464        C465   1.408       .  A
C465        C466   1.396       .  A
C465       Br472   1.913       .  S
C466        C467   1.405       .  A
C466        H471   1.084       .  S
C467        C468   1.405       .  A
C468       Br469   1.919       .  S
C473        C474   1.402       .  A
C473       C2142   1.389   1_455  A
C473       H2144   1.085   1_455  S
C474        C475   1.404       .  A
C475        C476   1.386       .  A
C475       Br482   1.918       .  S
C476       C2141   1.399   1_455  A
C476        H481   1.085       .  S
C477        C478   1.400       .  A
C477       C2140   1.398       .  A
C478       C2137   1.389       .  A
C478       Br479   1.917       .  S
H480       C2137   1.085       .  S
C483        C484   1.403       .  A
C483        C488   1.404       .  A
C483        H490   1.083       .  S
C484        C485   1.424       .  A
C485        C486   1.403       .  A
C485       Br492   1.921       .  S
C486        C487   1.398       .  A
C486        H491   1.084       .  S
C487        C488   1.420       .  A
C488       Br489   1.921       .  S
C493        C494   1.401       .  A
C493        C498   1.393       .  A
C493        H500   1.085       .  S
C494        C495   1.404       .  A
C495        C496   1.395       .  A
C495       Br502   1.918       .  S
C496        C497   1.408       .  A
C496        H501   1.084       .  S
C497        C498   1.412       .  A
C498       Br499   1.913       .  S
C503        C504   1.399       .  A
C503        C508   1.397       .  A
C503        H510   1.084       .  S
C504        C505   1.405       .  A
C505        C506   1.383       .  A
C505       Br512   1.912       .  S
C506        C507   1.396       .  A
C506        H511   1.085       .  S
C507        C508   1.409       .  A
C508       Br509   1.915       .  S
C513        C514   1.414       .  A
C513        C518   1.402       .  A
C513        H520   1.083       .  S
C514        C515   1.415       .  A
C515        C516   1.408       .  A
C515       Br522   1.919       .  S
C516        C517   1.409       .  A
C516        H521   1.084       .  S
C517       C1868   1.490       .  S
C517        C518   1.402       .  A
C518      Br2183   1.905       .  S
Br519      C2182   1.911       .  S
C523        C524   1.406       .  A
C523        C528   1.407       .  A
C523        H530   1.083       .  S
C524        C525   1.413       .  A
C525        C526   1.407       .  A
C525       Br532   1.919       .  S
C526        C527   1.406       .  A
C526        H531   1.084       .  S
C527        C528   1.410       .  A
C528       Br529   1.918       .  S
C533        C534   1.407       .  A
C533        C538   1.392       .  A
C533        H540   1.084       .  S
C534        C535   1.406       .  A
C535        C536   1.394       .  A
C535       Br542   1.921       .  S
C536        C537   1.407       .  A
C536        H541   1.084       .  S
C537        C538   1.403       .  A
C538       Br539   1.920       .  S
C543        C544   1.408       .  A
C543        C548   1.394       .  A
C543        H550   1.084       .  S
C544        C545   1.406       .  A
C545        C546   1.398       .  A
C545       Br552   1.920       .  S
C546        C547   1.406       .  A
C546        H551   1.084       .  S
C547        C548   1.407       .  A
C548       Br549   1.922       .  S
C553        C558   1.388       .  A
C553       C2218   1.400   1_455  A
C553        H560   1.085       .  S
C554        C555   1.402       .  A
C554       C2217   1.401       .  A
C555       C2220   1.388       .  A
C555       Br562   1.920       .  S
C556        C557   1.400   1_655  A
C556       C2219   1.387       .  A
C556       H2225   1.085       .  S
C557        C558   1.400       .  A
C558       Br559   1.919       .  S
H561       C2220   1.085       .  S
C563        C564   1.409       .  A
C563        C568   1.413       .  A
C563        H570   1.083       .  S
C564        C565   1.420       .  A
C565        C566   1.419       .  A
C565       Br572   1.920       .  S
C566        C567   1.413       .  A
C566        H571   1.083   1_556  S
C567        C568   1.422       .  A
C568       Br569   1.921       .  S
C573        C574   1.406   1_554  A
C573        C578   1.397       .  A
C573        H580   1.083       .  S
C574        C575   1.424   1_556  A
C575        C576   1.399       .  A
C575       Br582   1.924   1_554  S
C576        C577   1.396       .  A
C576        H581   1.084       .  S
C577        C578   1.404       .  A
C578       Br579   1.913       .  S
C583        C584   1.399       .  A
C583        C588   1.406       .  A
C583        H590   1.084       .  S
C584        C585   1.418       .  A
C585        C586   1.406       .  A
C585       Br592   1.918       .  S
C586        C587   1.404       .  A
C586        H591   1.083       .  S
C587        C588   1.427       .  A
C588       Br589   1.923       .  S
C593        C594   1.401       .  A
C593        C598   1.405       .  A
C593        H600   1.083       .  S
C594        C595   1.428       .  A
C595        C596   1.406       .  A
C595       Br602   1.922       .  S
C596        C597   1.399       .  A
C596        H601   1.084       .  S
C597        C598   1.422       .  A
C598       Br599   1.920       .  S
C603       C1436   1.412       .  A
C603       C1440   1.414   1_556  A
C603        H610   1.083       .  S
C604        C941   1.522   1_545  S
C604        C605   1.422       .  A
C604       C1435   1.411   1_545  A
C605        C606   1.416       .  A
C605       Br612   1.920       .  S
C606        C607   1.411   1_556  A
C606        H611   1.083       .  S
C607        C608   1.421       .  A
C608       C1435   1.411   1_544  A
C608      Br1441   1.922   1_545  S
Br609      C1440   1.922       .  S
C613        C614   1.410   1_554  A
C613        C618   1.394       .  A
C613        H620   1.083   1_554  S
C614        C615   1.418   1_556  A
C615        C616   1.393       .  A
C615       Br622   1.926   1_554  S
C616        C617   1.399       .  A
C616        H621   1.084       .  S
C617        C618   1.398       .  A
C618       Br619   1.916       .  S
C623        C624   1.398       .  A
C623        C628   1.392       .  A
C623        H630   1.084       .  S
C624        C625   1.404       .  A
C625        C626   1.384       .  A
C625       Br632   1.911       .  S
C626        C627   1.394       .  A
C626        H631   1.084       .  S
C627        C628   1.406       .  A
C628       Br629   1.915       .  S
C633        C638   1.400       .  A
C633       C1466   1.410       .  A
C633        H640   1.084       .  S
C634        C635   1.408       .  A
C634       C1465   1.409       .  A
C635       C1468   1.403       .  A
C635       Br642   1.920       .  S
C636        C637   1.407       .  A
C636       C1467   1.401       .  A
C636       H2305   1.084       .  S
C637       C1813   1.479       .  S
C637        C638   1.406       .  A
C638       Br639   1.918       .  S
H641       C2300   1.084   1_455  S
C643        C644   1.401       .  A
C643        C648   1.409       .  A
C643        H650   1.083       .  S
C644        C645   1.421       .  A
C645        C646   1.405       .  A
C645       Br652   1.920       .  S
C646        C647   1.403       .  A
C646        H651   1.083       .  S
C647        C648   1.426       .  A
C648       Br649   1.923       .  S
C653        C654   1.412       .  A
C653        C658   1.416       .  A
C653        H660   1.083       .  S
C654        C655   1.424       .  A
C655        C656   1.420       .  A
C655       Br662   1.920       .  S
C656        C657   1.413       .  A
C656        H661   1.083       .  S
C657        C658   1.425       .  A
C658       Br659   1.922       .  S
C663        C664   1.396       .  A
C663        C668   1.391       .  A
C663        H670   1.085       .  S
C664        C665   1.404       .  A
C665        C666   1.389       .  A
C665       Br672   1.918       .  S
C666        C667   1.404       .  A
C666        H671   1.084       .  S
C667        C668   1.416       .  A
C668       Br669   1.922       .  S
C673        C674   1.405       .  A
C673        C678   1.391       .  A
C673        H680   1.084   1_545  S
C674        C940   1.461       .  S
C674       C1507   1.407       .  A
C675        C676   1.393       .  A
C675       C1506   1.405       .  A
C675       Br682   1.919       .  S
C676       C1509   1.405       .  A
C676        H681   1.084       .  S
C677        C678   1.406       .  A
C677       C1508   1.405       .  A
C678       Br679   1.922   1_545  S
C683        C684   1.410       .  A
C683        C688   1.415       .  A
C683        H690   1.083       .  S
C684        C685   1.423       .  A
C685        C686   1.414       .  A
C685       Br692   1.921       .  S
C686        C687   1.409       .  A
C686        H691   1.083       .  S
C687        C688   1.423       .  A
C688       Br689   1.921       .  S
C693        C694   1.410       .  A
C693        C698   1.393       .  A
C693        H700   1.085       .  S
C694        C695   1.405       .  A
C695        C696   1.394       .  A
C695       Br702   1.919       .  S
C696        C697   1.403       .  A
C696        H701   1.084       .  S
C697        C698   1.403       .  A
C698       Br699   1.922       .  S
C703        C704   1.405       .  A
C703        C708   1.395       .  A
C703        H710   1.083       .  S
C704        C705   1.417       .  A
C705        C706   1.393       .  A
C705       Br712   1.921       .  S
C706        C707   1.397       .  A
C706        H711   1.084       .  S
C707        C708   1.406       .  A
C708       Br709   1.919       .  S
C713        C714   1.398       .  A
C713        C718   1.393       .  A
C713        H720   1.080       .  S
C714        C715   1.405       .  A
C715        C716   1.383       .  A
C715       Br722   1.906       .  S
C716        C717   1.395       .  A
C716        H721   1.085       .  S
C717        C718   1.404       .  A
C718       Br719   1.913       .  S
C723        C724   1.415       .  A
C723       C2392   1.416       .  A
C723        H730   1.083       .  S
C724       C2389   1.421       .  A
C725        C726   1.419       .  A
C725       C2388   1.422   1_455  A
C725       Br732   1.920   1_455  S
C726        C727   1.415       .  A
C726        H731   1.083       .  S
C727        C728   1.420       .  A
C728       C2387   1.415       .  A
C728      Br2393   1.920       .  S
Br729      C2392   1.920       .  S
C733        C734   1.406       .  A
C733        C738   1.393       .  A
C733        H740   1.083       .  S
C734        C735   1.418       .  A
C735        C736   1.396       .  A
C735       Br742   1.923       .  S
C736        C737   1.399       .  A
C736        H741   1.084       .  S
C737        C738   1.404       .  A
C738       Br739   1.919       .  S
C743        C744   1.407       .  A
C743        C748   1.397       .  A
C743        H750   1.082       .  S
C744        C745   1.404       .  A
C745        C746   1.389       .  A
C745       Br752   1.911       .  S
C746        C747   1.403       .  A
C746        H751   1.084       .  S
C747        C748   1.406       .  A
C748       Br749   1.920       .  S
C753        C754   1.411       .  A
C753        C758   1.402       .  A
C753        H760   1.084       .  S
C754        C755   1.412       .  A
C755        C756   1.406       .  A
C755       Br762   1.922       .  S
C756        C757   1.406       .  A
C756        H761   1.081       .  S
C757        C758   1.404       .  A
C758       Br759   1.918       .  S
C763        C764   1.410       .  A
C763        C768   1.410       .  A
C763        H770   1.084       .  S
C764        C765   1.407       .  A
C765        C766   1.411       .  A
C765       Br772   1.918       .  S
C766        C767   1.418       .  A
C766        H771   1.083       .  S
C767        C768   1.416       .  A
C768       Br769   1.919       .  S
C773        C774   1.413       .  A
C773       C2442   1.418       .  A
C773        H780   1.083       .  S
C774       C2439   1.424   1_545  A
C775        C776   1.416   1_545  A
C775       C2438   1.423   1_455  A
C775       Br782   1.921   1_445  S
C776        C777   1.412   1_565  A
C776        H781   1.083       .  S
C777        C848   1.529   1_545  S
C777        C778   1.423       .  A
C778       C2437   1.419       .  A
C778      Br2443   1.920       .  S
Br779      C2442   1.920       .  S
C783        C784   1.405       .  A
C783        C788   1.395       .  A
C783        H790   1.084       .  S
C784        C785   1.403       .  A
C785        C786   1.391       .  A
C785       Br792   1.919   1_545  S
C786        C787   1.408       .  A
C786       H1623   1.084   1_545  S
C787        C852   1.466   1_545  S
C787        C788   1.407       .  A
C788       Br789   1.921       .  S
H791       C1618   1.083       .  S
C793        C794   1.393       .  A
C793        C798   1.378       .  A
C793       H1632   1.085       .  S
C794        C795   1.417       .  A
C795        C796   1.409       .  A
C795       Br802   1.918       .  S
C796        C797   1.403       .  A
C796        H801   1.083       .  S
C797        C798   1.414       .  A
C798      Br1631   1.920       .  S
Br799      C1630   1.919       .  S
H800       C1625   1.084   1_545  S
C803        C804   1.398       .  A
C803       C2472   1.386       .  A
C803        H810   1.085       .  S
C804       C2469   1.401       .  A
C805        C806   1.387       .  A
C805       C2468   1.402   1_455  A
C805       Br812   1.920       .  S
C806        C807   1.398       .  A
C806        H811   1.084       .  S
C807        C808   1.401       .  A
C808       C2467   1.387   1_455  A
C808       Br809   1.918       .  S
C813        C818   1.404       .  A
C813       C1646   1.402       .  A
C813        H820   1.084       .  S
C814        C815   1.421   1_545  A
C814       C1645   1.403       .  A
C815        C816   1.404       .  A
C815       Br822   1.919       .  S
C816       C1649   1.400       .  A
C816        H821   1.084       .  S
C817        C818   1.422       .  A
C817       C1648   1.400       .  A
C818       Br819   1.922       .  S
C823        C824   1.417       .  A
C823        C828   1.407       .  A
C823        H830   1.083       .  S
C824        C825   1.411       .  A
C825        C826   1.409       .  A
C825       Br832   1.917       .  S
C826        C827   1.411       .  A
C826        H831   1.084       .  S
C827        C828   1.404       .  A
C828       Br829   1.919       .  S
O833        C848   1.273       .  A
O833       Al841   1.969       .  S
C834        O844   1.253       .  A
C834        O835   1.268       .  A
C834       C1649   1.491       .  S
O835       Al837   1.945       .  S
O836        C838   1.268       .  A
O836       Al837   1.900       .  S
Al837       O846   1.770       .  S
C838        O851   1.264       .  A
C838       C1626   1.480       .  S
O839        C849   1.281       .  A
O839       Al841   2.002       .  S
O840        C853   1.251       .  A
O840       Al850   1.881       .  S
Al841       O854   1.887       .  S
Al841       O851   1.895       .  S
Al841       O846   1.776       .  S
O842        C849   1.259       .  A
O842       Al850   1.872       .  S
O843        C852   1.254       .  A
O843       Al850   1.843       .  S
O844       Al850   1.892       .  S
O846       Al850   1.775       .  S
C849       C1656   1.495       .  S
C853        O854   1.260       .  A
C853       C1639   1.437       .  S
O855        C870   1.266       .  A
O855       Al863   1.952       .  S
C856        O866   1.253       .  A
C856        O857   1.267       .  A
C856       C1586   1.491       .  S
O857       Al859   1.939       .  S
O858        C860   1.275       .  A
O858       Al859   1.943       .  S
Al859       O867   1.959       .  S
Al859       O869   1.954       .  S
Al859       O868   1.788       .  S
C860        O873   1.263       .  A
C860       C1566   1.471       .  S
O861        C871   1.272       .  A
O861       Al863   1.976       .  S
O862        C875   1.257       .  A
O862       Al872   1.897       .  S
Al863       O876   1.875       .  S
Al863       O873   1.865       .  S
Al863       O868   1.774       .  S
O864        C871   1.259       .  A
O864       Al872   1.887       .  S
O865        C874   1.252       .  A
O865       Al872   1.828       .  S
O866       Al872   1.877       .  S
O867        C874   1.272       .  A
O868       Al872   1.785       .  S
O869        C870   1.268       .  A
C870       C1556   1.536       .  S
C871       C1596   1.489       .  S
C874       C1576   1.466       .  S
C875        O876   1.261       .  A
C875       C1636   1.436       .  S
O877        C892   1.260       .  A
O877       Al885   1.866       .  S
C878        O888   1.269       .  A
C878        O879   1.254       .  A
C878       C1659   1.495       .  S
O879       Al881   1.887       .  S
O880        C882   1.258       .  A
O880       Al881   1.889       .  S
Al881       O889   1.830       .  S
Al881       O891   1.914       .  S
Al881       O890   1.782       .  S
C882        O895   1.271       .  A
C882       C1589   1.482       .  S
O883        C893   1.267       .  A
O883       Al885   1.888       .  S
O884        C897   1.268       .  A
O884       Al894   1.949       .  S
Al885       O898   1.937       .  S
Al885       O895   1.967       .  S
Al885       O890   1.778       .  S
O886        C893   1.269       .  A
O886       Al894   1.916       .  S
O887        C896   1.266       .  A
O887       Al894   1.932       .  S
O888       Al894   1.948       .  S
O889        C896   1.253       .  A
O890       Al894   1.782       .  S
O891        C892   1.258       .  A
C892       C1549   1.459       .  S
C893       C1536   1.476       .  S
C896       C1526   1.457       .  S
C897        O898   1.262       .  A
C897       C1516   1.521       .  S
O899        C914   1.260       .  A
O899       Al907   1.887       .  S
C900       C1599   1.503       .  S
O901       Al903   1.922       .  S
O902        C904   1.260       .  A
O902       Al903   1.886       .  S
Al903       O911   1.846       .  S
Al903       O913   1.912       .  S
Al903       O912   1.779       .  S
C904        O917   1.275       .  A
C904       C1646   1.489       .  S
O905        C915   1.254       .  A
O905       Al907   1.859       .  S
O906        C919   1.272       .  A
O906       Al916   1.944       .  S
Al907       O920   1.972       .  S
Al907       O917   1.965       .  S
Al907       O912   1.768       .  S
O908        C915   1.267       .  A
O908       Al916   1.920       .  S
O909        C918   1.271       .  A
O909       Al916   1.946       .  S
O910       Al916   1.950       .  S
O911        C918   1.254       .  A
O912       Al916   1.782       .  S
O913        C914   1.255       .  A
C914       C1546   1.451       .  S
C915       C1509   1.465       .  S
C918       C1496   1.455       .  S
C919        O920   1.272       .  A
C919       C1486   1.535       .  S
O921        C936   1.259       .  A
O921       Al929   1.875       .  S
C922        O932   1.264   1_565  A
C922        O923   1.262       .  A
C922       C1466   1.486   1_565  S
O923       Al925   1.909       .  S
O924        C926   1.259       .  A
O924       Al925   1.893       .  S
Al925       O933   1.847       .  S
Al925       O935   1.905       .  S
Al925       O934   1.774       .  S
C926        O939   1.274       .  A
C926       C1476   1.497       .  S
O927        C937   1.262       .  A
O927       Al929   1.874       .  S
Al929       O942   1.965       .  S
Al929       O939   1.973       .  S
Al929       O934   1.767       .  S
O930        C937   1.262       .  A
O930       Al938   1.906   1_565  S
O932       Al938   1.913       .  S
O933        C940   1.253   1_565  A
O934       Al938   1.784   1_565  S
O935        C936   1.257       .  A
C936       C1456   1.442       .  S
C937       C1446   1.472       .  S
C941        O942   1.273       .  A
O943        C958   1.258       .  A
O943       Al951   1.869       .  S
C944        O954   1.270       .  A
C944        O945   1.259       .  A
C944       C1419   1.505       .  S
O945       Al947   1.914       .  S
O946        C948   1.260       .  A
O946       Al947   1.886       .  S
Al947       O955   1.855       .  S
Al947       O957   1.900       .  S
Al947       O956   1.780       .  S
C948        O961   1.279       .  A
C948       C1426   1.501       .  S
O949        C959   1.262       .  A
O949       Al951   1.883       .  S
O950        C963   1.271       .  A
O950       Al960   1.946       .  S
Al951       O964   1.972       .  S
Al951       O961   1.990       .  S
Al951       O956   1.769       .  S
O952        C959   1.266       .  A
O952       Al960   1.917       .  S
O953        C962   1.269       .  A
O953       Al960   1.946       .  S
O954       Al960   1.945       .  S
O955        C962   1.253       .  A
O956       Al960   1.781       .  S
O957        C958   1.253       .  A
C958       C1459   1.443       .  S
C959       C1406   1.475   1_556  S
C962       C1539   1.457       .  S
C963        O964   1.273       .  A
C963       C1396   1.531       .  S
O965        C980   1.261       .  A
O965       Al973   1.933       .  S
C966       C1429   1.498       .  S
O967       Al969   1.951       .  S
O968        C970   1.273       .  A
O968       Al969   1.929       .  S
Al969       O977   1.951       .  S
Al969       O979   1.954       .  S
Al969       O978   1.786       .  S
C970        O983   1.260       .  A
C970       C1616   1.463       .  S
O971        C981   1.269       .  A
O971       Al973   1.958       .  S
O972        C985   1.257       .  A
O972       Al982   1.892       .  S
Al973       O986   1.881       .  S
Al973       O983   1.864       .  S
Al973       O978   1.775       .  S
O974        C981   1.262       .  A
O974       Al982   1.898       .  S
O975        C984   1.254       .  A
O975       Al982   1.837       .  S
O976       Al982   1.884       .  S
O977        C984   1.271       .  A
O978       Al982   1.780       .  S
O979        C980   1.270       .  A
C980       C1519   1.523       .  S
C981       C3133   1.501   1_455  S
C984       C1376   1.468       .  S
C985        O986   1.260       .  A
C985       C1389   1.440       .  S
O987       C1002   1.270       .  A
O987       Al995   1.965       .  S
C988        O998   1.257       .  A
C988        O989   1.271       .  A
C988       C1479   1.502       .  S
O989       Al991   1.942       .  S
O990        C992   1.270       .  A
O990       Al991   1.930       .  S
Al991       O999   1.950       .  S
Al991      O1001   1.951       .  S
Al991      O1000   1.783       .  S
C992       O1005   1.258       .  A
C992       C1579   1.469       .  S
O993       C2667   1.275       .  A
O993       Al995   1.977       .  S
O994       C1007   1.255       .  A
O994      Al1004   1.897       .  S
Al995      O1008   1.873       .  S
Al995      O1005   1.867       .  S
Al995      O1000   1.766       .  S
O996       C2667   1.261       .  A
O996      Al1004   1.896       .  S
O997       C1006   1.254       .  A
O997      Al1004   1.849       .  S
O998      Al1004   1.905       .  S
O999       C1006   1.270       .  A
O1000     Al1004   1.780       .  S
O1001      C1002   1.272       .  A
C1002      C1489   1.534       .  S
C1003      O2657   1.276       .  A
C1003      O2660   1.261       .  A
C1003      C1416   1.501   1_655  S
C1006      C1369   1.465       .  S
C1007      O1008   1.258       .  A
C1007      C1386   1.436       .  S
O1009      C1024   1.267       .  A
O1009     Al1017   1.954       .  S
C1010      O1020   1.258       .  A
C1010      O1011   1.270       .  A
C1010      C1346   1.506       .  S
O1011     Al1013   1.951       .  S
O1012      C1014   1.272   1_554  A
O1012     Al1013   1.929       .  S
Al1013     O1021   1.961       .  S
Al1013     O1023   1.955       .  S
Al1013     O1022   1.781       .  S
C1014      O1027   1.260   1_556  A
C1014      C1366   1.468       .  S
O1015      C1025   1.275       .  A
O1015     Al1017   1.973       .  S
O1016      C1029   1.258       .  A
O1016     Al1026   1.919       .  S
Al1017     O1030   1.872       .  S
Al1017     O1027   1.870       .  S
Al1017     O1022   1.770       .  S
O1018      C1025   1.258       .  A
O1018     Al1026   1.880       .  S
O1019      C1028   1.253       .  A
O1019     Al1026   1.834       .  S
O1020     Al1026   1.906       .  S
O1021      C1028   1.273       .  A
O1022     Al1026   1.779       .  S
O1023      C1024   1.272       .  A
C1024      C1399   1.530       .  S
C1025      C1356   1.488       .  S
C1028      C1326   1.465       .  S
C1029      O1030   1.260       .  A
C1029      C1339   1.455       .  S
O1031      C1046   1.256       .  A
O1031     Al1039   1.860       .  S
C1032      O1042   1.270       .  A
C1032      O1033   1.259       .  A
C1032      C1316   1.494       .  S
O1033     Al1035   1.909       .  S
O1034      C1036   1.259       .  A
O1034     Al1035   1.882       .  S
Al1035     O1043   1.852       .  S
Al1035     O1045   1.891       .  S
Al1035     O1044   1.778       .  S
C1036      O1049   1.278       .  A
C1036      C3013   1.500   1_455  S
O1037      C1047   1.261       .  A
O1037     Al1039   1.878       .  S
O1038      C1051   1.270       .  A
O1038     Al1048   1.939       .  S
Al1039     O1052   1.985       .  S
Al1039     O1049   1.992       .  S
Al1039     O1044   1.771       .  S
O1040      C1047   1.269       .  A
O1040     Al1048   1.925       .  S
O1041      C1050   1.270       .  A
O1041     Al1048   1.950       .  S
O1042     Al1048   1.936       .  S
O1043      C1050   1.250       .  A
O1044     Al1048   1.776       .  S
O1045      C1046   1.257       .  A
C1046      C1306   1.443       .  S
C1047      C1296   1.469       .  S
C1050      C1409   1.463       .  S
C1051      O1052   1.275       .  A
C1051      C1286   1.533       .  S
O1053      C1068   1.272       .  A
O1053     Al1061   1.965       .  S
C1054      O1064   1.257       .  A
C1054      O1055   1.270       .  A
C1054      C1276   1.501       .  S
O1055     Al1057   1.950       .  S
O1056      C1058   1.270   1_554  A
O1056     Al1057   1.933       .  S
Al1057     O1065   1.955       .  S
Al1057     O1067   1.925       .  S
Al1057     O1066   1.780       .  S
C1058      O1071   1.259   1_556  A
C1058      C1379   1.472       .  S
O1059      C1069   1.278       .  A
O1059     Al1061   1.980       .  S
O1060      C1073   1.254       .  A
O1060     Al1070   1.902       .  S
Al1061     O1074   1.891       .  S
Al1061     O1071   1.869       .  S
Al1061     O1066   1.769       .  S
O1062      C1069   1.260       .  A
O1062     Al1070   1.885       .  S
O1063      C1072   1.254       .  A
O1063     Al1070   1.837       .  S
O1064     Al1070   1.900       .  S
O1065      C1072   1.272       .  A
O1066     Al1070   1.775       .  S
O1067      C1068   1.265       .  A
C1068      C1439   1.524   1_554  S
C1069      C1319   1.493       .  S
C1072      C1266   1.462       .  S
C1073      O1074   1.259       .  A
C1073      C1336   1.446       .  S
O1075      C1090   1.257       .  A
O1075     Al1083   1.870       .  S
C1076      O1086   1.266       .  A
C1076      O1077   1.258       .  A
C1076      C1359   1.479       .  S
O1078      C2744   1.260       .  A
Al1079     O1087   1.858       .  S
Al1079     O1089   1.898       .  S
Al1079     O1088   1.779       .  S
C1080      O2742   1.260   1_455  A
C1080      C1279   1.493       .  S
O1081     Al1083   1.864       .  S
O1082      C1095   1.270       .  A
O1082     Al1092   1.950       .  S
Al1083     O1096   1.953       .  S
Al1083     O2757   1.967       .  S
Al1083     O1088   1.770       .  S
O1084      C1091   1.269       .  A
O1085      C1094   1.263       .  A
O1085     Al1092   1.922       .  S
O1087      C1094   1.253       .  A
O1088     Al1092   1.788       .  S
O1089      C1090   1.255       .  A
C1090      C1309   1.434       .  S
C1091      C1256   1.462       .  S
O1093     Al2747   1.960   1_455  S
C1094      C1449   1.444       .  S
C1095      O1096   1.268       .  A
C1095      C1246   1.527       .  S
O1097      C1112   1.260       .  A
O1097     Al1105   1.874       .  S
C1098      O1108   1.269       .  A
C1098      O1099   1.255       .  A
C1098      C1239   1.492       .  S
O1099     Al1101   1.892       .  S
O1100      C1102   1.261       .  A
O1100     Al1101   1.888       .  S
Al1101     O1109   1.854       .  S
Al1101     O1111   1.896       .  S
Al1101     O1110   1.779       .  S
C1102      O1115   1.276       .  A
C1102      C1226   1.504       .  S
O1103      C1113   1.263       .  A
O1103     Al1105   1.867       .  S
O1104      C1117   1.265       .  A
O1104     Al1114   1.936       .  S
Al1105     O1118   1.970       .  S
Al1105     O1115   1.993       .  S
Al1105     O1110   1.776       .  S
O1106      C1113   1.271       .  A
O1106     Al1114   1.929       .  S
O1107      C1116   1.267       .  A
O1107     Al1114   1.923       .  S
O1108     Al1114   1.943       .  S
O1109      C1116   1.254       .  A
O1110     Al1114   1.784       .  S
O1111      C1112   1.255       .  A
C1112      C1216   1.440       .  S
C1113      C1499   1.468       .  S
C1116      C1259   1.453       .  S
C1117      O1118   1.271       .  A
C1117      C1606   1.530       .  S
O1119      C1134   1.261       .  A
O1119     Al1127   1.872       .  S
C1120      O1130   1.266       .  A
C1120      O1121   1.255       .  A
C1120      C1196   1.494       .  S
O1121     Al1123   1.885       .  S
O1122      C1124   1.259       .  A
O1122     Al1123   1.883       .  S
Al1123     O1131   1.829       .  S
Al1123     O1133   1.901       .  S
Al1123     O1132   1.778       .  S
C1124      O1137   1.277       .  A
C1124      C1209   1.501       .  S
O1125      C1135   1.261       .  A
O1125     Al1127   1.860       .  S
O1126      C1139   1.268       .  A
O1126     Al1136   1.942       .  S
Al1127     O1140   1.977       .  S
Al1127     O1137   1.990       .  S
Al1127     O1132   1.769       .  S
O1128      C1135   1.270       .  A
O1128     Al1136   1.923       .  S
O1129      C1138   1.273       .  A
O1129     Al1136   1.957       .  S
O1130     Al1136   1.944       .  S
O1131      C1138   1.252       .  A
O1132     Al1136   1.778       .  S
O1133      C1134   1.256       .  A
C1134      C1219   1.437       .  S
C1135      C1529   1.456       .  S
C1138      C1299   1.461       .  S
C1139      O1140   1.272       .  A
C1139      C1559   1.537       .  S
O1141      C1156   1.273       .  A
O1141     Al1149   1.973       .  S
C1142      O1152   1.263       .  A
C1142      O1143   1.270       .  A
C1142      C1229   1.500       .  S
O1143     Al1145   1.937       .  S
O1144      C1146   1.268       .  A
O1144     Al1145   1.929       .  S
Al1145     O1153   1.945       .  S
Al1145     O1155   1.933       .  S
Al1145     O1154   1.782       .  S
C1146      O1159   1.258       .  A
C1146      C1329   1.473       .  S
O1147      C1157   1.275       .  A
O1147     Al1149   1.965       .  S
O1148      C1161   1.255       .  A
O1148     Al1158   1.904       .  S
Al1149     O1162   1.892       .  S
Al1149     O1159   1.872       .  S
Al1149     O1154   1.769       .  S
O1150      C1157   1.263       .  A
O1150     Al1158   1.892       .  S
O1151      C1160   1.253       .  A
O1151     Al1158   1.859       .  S
O1152     Al1158   1.929       .  S
O1153      C1160   1.270       .  A
O1154     Al1158   1.781       .  S
O1155      C1156   1.269       .  A
C1156      C1249   1.528       .  S
C1157      C1199   1.495       .  S
C1160      C1569   1.460       .  S
C1161      O1162   1.261       .  A
C1161      C1186   1.450       .  S
O1163      C1178   1.265       .  A
O1163     Al1171   1.961       .  S
C1164      O1174   1.256       .  A
C1164      O1165   1.265       .  A
C1164      C1206   1.486       .  S
O1166      C1168   1.278       .  A
Al1167     O1175   1.953       .  S
Al1167     O1177   1.946       .  S
Al1167     O1176   1.783       .  S
C1168      C1269   1.463       .  S
O1169     Al1171   1.981       .  S
O1170      C1183   1.265       .  A
O1170     Al1180   1.923   1_565  S
Al1171     O1184   1.868       .  S
Al1171     O1181   1.866       .  S
Al1171     O1176   1.779       .  S
O1172     Al1180   1.890       .  S
O1173      C1182   1.250       .  A
O1173     Al1180   1.831   1_565  S
O1175      C1182   1.271       .  A
O1176     Al1180   1.780   1_565  S
O1177      C1178   1.264       .  A
C1178      C1289   1.531       .  S
C1179      C1236   1.490       .  S
C1182      C1629   1.462       .  S
C1183      O1184   1.266       .  A
C1183      C1189   1.457       .  S
C1185      C1186   1.399       .  A
C1185      C1190   1.395       .  A
C1185      H1192   1.083       .  S
C1186      C1187   1.406       .  A
C1187      C1188   1.384       .  A
C1187     Br1194   1.907       .  S
C1188      C1189   1.395       .  A
C1188      H1193   1.085       .  S
C1189      C1190   1.406       .  A
C1190     Br1191   1.915       .  S
C1195      C1196   1.409       .  A
C1195      C1200   1.400       .  A
C1195      H1202   1.084       .  S
C1196      C1197   1.410       .  A
C1197      C1198   1.409       .  A
C1197     Br1204   1.919       .  S
C1198      C1199   1.413       .  A
C1198      H1203   1.083       .  S
C1199      C1200   1.409       .  A
C1200     Br1201   1.914       .  S
C1205      C1206   1.407       .  A
C1205      C1210   1.406       .  A
C1205      H1212   1.082       .  S
C1206      C1207   1.402       .  A
C1207      C1208   1.405       .  A
C1207     Br1214   1.917       .  S
C1208      C1209   1.417       .  A
C1208      H1213   1.083       .  S
C1209      C1210   1.413       .  A
C1210     Br1211   1.919       .  S
C1215      C2880   1.396   1_455  A
C1215      C1220   1.384       .  A
C1215      H1222   1.083       .  S
C1216      C2879   1.396       .  A
C1216      C1217   1.405       .  A
C1217      C2882   1.387       .  A
C1217     Br1224   1.918       .  S
C1218      C2881   1.386   1_455  A
C1218      C1219   1.397       .  A
C1218      H1223   1.084       .  S
C1219      C1220   1.402       .  A
C1220     Br1221   1.915       .  S
C1225      C1226   1.412       .  A
C1225      C1230   1.404       .  A
C1225      H1232   1.083       .  S
C1226      C1227   1.413       .  A
C1227      C1228   1.413       .  A
C1227     Br1234   1.918       .  S
C1228      C1229   1.414       .  A
C1228      H1233   1.083       .  S
C1229      C1230   1.408       .  A
C1230     Br1231   1.919       .  S
C1235      C1236   1.406       .  A
C1235      C1240   1.409       .  A
C1236      C1237   1.409       .  A
C1237      C1238   1.405       .  A
C1237     Br1244   1.919       .  S
C1238      C1239   1.408       .  A
C1238      H1243   1.084       .  S
C1239      C1240   1.412       .  A
C1245      C1246   1.413       .  A
C1245      C1250   1.414       .  A
C1245      H1252   1.083       .  S
C1246      C1247   1.419       .  A
C1247      C1248   1.420       .  A
C1247     Br1254   1.919       .  S
C1248      C1249   1.416       .  A
C1248      H1253   1.083       .  S
C1249      C1250   1.420       .  A
C1250     Br1251   1.920       .  S
C1255      C1256   1.402       .  A
C1255      C1260   1.392       .  A
C1256      C1257   1.413       .  A
C1257      C1258   1.389       .  A
C1257     Br1264   1.921       .  S
C1258      C1259   1.397       .  A
C1258      H1263   1.083       .  S
C1259      C1260   1.407       .  A
C1265      C1266   1.407       .  A
C1265      C1270   1.392       .  A
C1265      H1272   1.085       .  S
C1266      C1267   1.405       .  A
C1267      C1268   1.396       .  A
C1267     Br1274   1.919       .  S
C1268      C1269   1.405       .  A
C1268      H1273   1.084       .  S
C1269      C1270   1.406       .  A
C1270     Br1271   1.922       .  S
C1275      C1276   1.416       .  A
C1275      C1280   1.406       .  A
C1275      H1282   1.083       .  S
C1276      C1277   1.411       .  A
C1277      C1278   1.407       .  A
C1278      C1279   1.411       .  A
C1279      C1280   1.405       .  A
C1280     Br1281   1.918       .  S
C1285      C1286   1.416       .  A
C1285      C1290   1.422       .  A
C1285      H1292   1.083       .  S
C1286      C1287   1.422       .  A
C1287      C1288   1.417       .  A
C1287     Br1294   1.920       .  S
C1288      C1289   1.413       .  A
C1288      H1293   1.083       .  S
C1289      C1290   1.421       .  A
C1290     Br1291   1.919       .  S
C1295      C1296   1.407       .  A
C1295      C1300   1.395       .  A
C1295      H1302   1.084       .  S
C1296      C1297   1.406       .  A
C1297      C1298   1.395       .  A
C1297     Br1304   1.920       .  S
C1298      C1299   1.408       .  A
C1298      H1303   1.085       .  S
C1299      C1300   1.404       .  A
C1300     Br1301   1.919       .  S
C1305      C1306   1.401       .  A
C1305      C2974   1.388   1_455  A
C1305      H2976   1.084   1_455  S
C1306      C1307   1.407       .  A
C1307      C1308   1.383       .  A
C1307     Br1314   1.925       .  S
C1308      C2973   1.396       .  A
C1308      H1313   1.085       .  S
C1309      C2972   1.398       .  A
C1309      C1310   1.399       .  A
C1310      C2969   1.384       .  A
C1310     Br1311   1.910       .  S
H1312      C2969   1.085       .  S
C1315      C1316   1.399       .  A
C1315      C1320   1.402       .  A
C1315      H1322   1.084       .  S
C1316      C1317   1.420       .  A
C1317      C1318   1.405       .  A
C1317     Br1324   1.916       .  S
C1318      C1319   1.401       .  A
C1318      H1323   1.084       .  S
C1319      C1320   1.422       .  A
C1320     Br1321   1.921       .  S
C1325      C1326   1.405       .  A
C1325      C1330   1.392       .  A
C1325      H1332   1.085       .  S
C1326      C1327   1.407       .  A
C1327      C1328   1.399       .  A
C1327     Br1334   1.918       .  S
C1328      C1329   1.407       .  A
C1328      H1333   1.084       .  S
C1329      C1330   1.407       .  A
C1330     Br1331   1.917       .  S
C1335      C1336   1.399       .  A
C1335      C1340   1.394       .  A
C1335      H1342   1.084       .  S
C1336      C1337   1.403       .  A
C1337      C1338   1.386       .  A
C1337     Br1344   1.914       .  S
C1338      C1339   1.398       .  A
C1338      H1343   1.084       .  S
C1339      C1340   1.406       .  A
C1340     Br1341   1.914       .  S
C1345      C1346   1.415       .  A
C1345      C1350   1.408       .  A
C1345      H1352   1.083       .  S
C1346      C1347   1.411       .  A
C1347      C1348   1.410       .  A
C1347     Br1354   1.919       .  S
C1348      C1349   1.414       .  A
C1348      H1353   1.083       .  S
C1349      C2700   1.503       .  S
C1349      C1350   1.407       .  A
C1350     Br3015   1.916       .  S
Br1351     C3014   1.916       .  S
C1355      C1356   1.404       .  A
C1355      C1360   1.402       .  A
C1355      H1362   1.083       .  S
C1356      C1357   1.416       .  A
C1357      C1358   1.405       .  A
C1357     Br1364   1.922       .  S
C1358      C1359   1.404       .  A
C1358      H1363   1.084       .  S
C1359      C1360   1.409       .  A
C1360     Br1361   1.918       .  S
C1365      C1366   1.405       .  A
C1365      C1370   1.395       .  A
C1365      H1372   1.084       .  S
C1366      C1367   1.408       .  A
C1367      C1368   1.395       .  A
C1367     Br1374   1.922       .  S
C1368      C1369   1.407       .  A
C1368      H1373   1.084       .  S
C1369      C1370   1.406       .  A
C1370     Br1371   1.920       .  S
C1375      C1376   1.407       .  A
C1375      C1380   1.393       .  A
C1375      H1382   1.084       .  S
C1376      C1377   1.406       .  A
C1377      C1378   1.400       .  A
C1377     Br1384   1.920       .  S
C1378      C1379   1.408       .  A
C1378      H1383   1.084       .  S
C1379      C1380   1.408       .  A
C1380     Br1381   1.921       .  S
C1385      C3050   1.400   1_455  A
C1385      C1390   1.389       .  A
C1385      H1392   1.085       .  S
C1386      C3049   1.400       .  A
C1386      C1387   1.399       .  A
C1387      C3052   1.386       .  A
C1387     Br1394   1.919       .  S
C1388      C3051   1.386   1_455  A
C1388      C1389   1.400       .  A
C1388      H3057   1.085   1_455  S
C1389      C1390   1.401       .  A
C1390     Br1391   1.920       .  S
H1393      C3052   1.085       .  S
C1395      C1396   1.413       .  A
C1395      C1400   1.418       .  A
C1395      H1402   1.083       .  S
C1396      C1397   1.421       .  A
C1397      C1398   1.421       .  A
C1397     Br1404   1.918       .  S
C1398      C1399   1.413   1_556  A
C1398      H1403   1.083   1_556  S
C1399      C1400   1.422   1_554  A
C1400     Br1401   1.922   1_556  S
C1405      C1406   1.402       .  A
C1405      C1410   1.396       .  A
C1405      H1412   1.084   1_554  S
C1406      C1407   1.417       .  A
C1407      C1408   1.394       .  A
C1407     Br1414   1.915       .  S
C1408      C1409   1.395       .  A
C1408      H1413   1.084       .  S
C1409      C1410   1.411       .  A
C1410     Br1411   1.918       .  S
C1415      C1416   1.402       .  A
C1415      C1420   1.409       .  A
C1415      H1422   1.084       .  S
C1416      C1417   1.421       .  A
C1417      C1418   1.406       .  A
C1417     Br1424   1.920       .  S
C1418      C1419   1.403       .  A
C1418      H1423   1.083       .  S
C1419      C1420   1.424       .  A
C1420     Br1421   1.920       .  S
C1425      C1426   1.403       .  A
C1425      C1430   1.408       .  A
C1425      H1432   1.083       .  S
C1426      C1427   1.424       .  A
C1427      C1428   1.404       .  A
C1427     Br1434   1.921       .  S
C1428      C1429   1.399       .  A
C1428      H1433   1.084       .  S
C1429      C1430   1.422       .  A
C1430     Br1431   1.920       .  S
C1435      H1442   1.083       .  S
C1436      C1437   1.422       .  A
C1437      C1438   1.416       .  A
C1437     Br1444   1.921       .  S
C1438      C1439   1.412       .  A
C1438      H1443   1.083       .  S
C1439      C1440   1.422   1_556  A
C1445      C1446   1.409   1_554  A
C1445      C1450   1.391       .  A
C1445      H1452   1.083   1_554  S
C1446      C1447   1.418   1_556  A
C1447      C1448   1.390       .  A
C1447     Br1454   1.926   1_564  S
C1448      C1449   1.396       .  A
C1448      H1453   1.084   1_565  S
C1449      C1450   1.397       .  A
C1450     Br1451   1.912       .  S
C1455      C1456   1.397       .  A
C1455      C1460   1.392       .  A
C1455      H1462   1.084       .  S
C1456      C1457   1.405       .  A
C1457      C1458   1.381       .  A
C1457     Br1464   1.908       .  S
C1458      C1459   1.392       .  A
C1458      H1463   1.084       .  S
C1459      C1460   1.407       .  A
C1460     Br1461   1.916       .  S
C1465      C1470   1.406       .  A
C1465      H1472   1.083       .  S
C1466      C1467   1.412       .  A
C1467     Br1474   1.921       .  S
C1468      C1469   1.410       .  A
C1468      H3137   1.083       .  S
C1469      C2645   1.494       .  S
C1469      C1470   1.412       .  A
C1470     Br1471   1.919       .  S
H1473      C3132   1.083   1_455  S
C1475      C1476   1.402       .  A
C1475      C1480   1.408       .  A
C1475      H1482   1.083       .  S
C1476      C1477   1.421       .  A
C1477      C1478   1.403       .  A
C1477     Br1484   1.919       .  S
C1478      C1479   1.401       .  A
C1478      H1483   1.083       .  S
C1479      C1480   1.425       .  A
C1480     Br1481   1.923       .  S
C1485      C1486   1.413       .  A
C1485      C1490   1.419       .  A
C1485      H1492   1.083       .  S
C1486      C1487   1.425       .  A
C1487      C1488   1.420       .  A
C1487     Br1494   1.920       .  S
C1488      C1489   1.413       .  A
C1488      H1493   1.083       .  S
C1489      C1490   1.424       .  A
C1490     Br1491   1.921       .  S
C1495      C1496   1.397       .  A
C1495      C1500   1.394       .  A
C1495      H1502   1.084       .  S
C1496      C1497   1.408       .  A
C1497      C1498   1.392       .  A
C1497     Br1504   1.920       .  S
C1498      C1499   1.402       .  A
C1498      H1503   1.084       .  S
C1499      C1500   1.415       .  A
C1500     Br1501   1.919       .  S
C1505      C1506   1.406       .  A
C1505      C1510   1.393       .  A
C1505      H1512   1.084       .  S
C1507      C1508   1.394       .  A
C1507     Br1514   1.921       .  S
C1508      H1513   1.084       .  S
C1509      C1510   1.409       .  A
C1510     Br1511   1.923       .  S
C1515      C1516   1.408       .  A
C1515      C1520   1.413       .  A
C1515      H1522   1.083       .  S
C1516      C1517   1.423       .  A
C1517      C1518   1.417       .  A
C1517     Br1524   1.921       .  S
C1518      C1519   1.410       .  A
C1518      H1523   1.083       .  S
C1519      C1520   1.424       .  A
C1520     Br1521   1.921       .  S
C1525      C1526   1.406       .  A
C1525      C1530   1.388       .  A
C1525      H1532   1.085       .  S
C1526      C1527   1.406       .  A
C1527      C1528   1.394       .  A
C1527     Br1534   1.920       .  S
C1528      C1529   1.405       .  A
C1528      H1533   1.084       .  S
C1529      C1530   1.403       .  A
C1530     Br1531   1.921       .  S
C1535      C1536   1.404       .  A
C1535      C1540   1.398       .  A
C1535      H1542   1.083       .  S
C1536      C1537   1.419       .  A
C1537      C1538   1.392       .  A
C1537     Br1544   1.921       .  S
C1538      C1539   1.393       .  A
C1538      H1543   1.084       .  S
C1539      C1540   1.408       .  A
C1540     Br1541   1.919       .  S
C1545      C1546   1.400       .  A
C1545      C1550   1.396       .  A
C1545      H1552   1.081       .  S
C1546      C1547   1.405       .  A
C1547      C1548   1.382       .  A
C1547     Br1554   1.911       .  S
C1548      C1549   1.397       .  A
C1548      H1553   1.085       .  S
C1549      C1550   1.406       .  A
C1550     Br1551   1.914       .  S
C1555      C1556   1.415       .  A
C1555      C3224   1.418       .  A
C1555      H1562   1.083       .  S
C1556      C3221   1.423       .  A
C1557      C3220   1.424   1_455  A
C1557      C1558   1.422       .  A
C1557     Br1564   1.919   1_455  S
C1558      C1559   1.416       .  A
C1558      H1563   1.083       .  S
C1559      C1560   1.424       .  A
C1560      C3219   1.419       .  A
C1560     Br3225   1.921       .  S
Br1561     C3224   1.921       .  S
C1565      C1566   1.404       .  A
C1565      C1570   1.394       .  A
C1565      H1572   1.084       .  S
C1566      C1567   1.413       .  A
C1567      C1568   1.394       .  A
C1567     Br1574   1.918       .  S
C1568      C1569   1.399       .  A
C1568      H1573   1.084       .  S
C1569      C1570   1.408       .  A
C1570     Br1571   1.920       .  S
C1575      C1576   1.406       .  A
C1575      C1580   1.394       .  A
C1575      H1582   1.083       .  S
C1576      C1577   1.406       .  A
C1577      C1578   1.397       .  A
C1577     Br1584   1.912       .  S
C1578      C1579   1.405       .  A
C1578      H1583   1.084       .  S
C1579      C1580   1.407       .  A
C1580     Br1581   1.922       .  S
C1585      C1586   1.412       .  A
C1585      C1590   1.403       .  A
C1585      H1592   1.084       .  S
C1586      C1587   1.411       .  A
C1587      C1588   1.406       .  A
C1587     Br1594   1.920       .  S
C1588      C1589   1.405       .  A
C1588      H1593   1.080       .  S
C1589      C1590   1.404       .  A
C1590     Br1591   1.918       .  S
C1595      C1596   1.408       .  A
C1595      C1600   1.406       .  A
C1595      H1602   1.084       .  S
C1596      C1597   1.404       .  A
C1597      C1598   1.407       .  A
C1597     Br1604   1.918       .  S
C1598      C1599   1.417       .  A
C1598      H1603   1.083       .  S
C1599      C1600   1.414       .  A
C1600     Br1601   1.920       .  S
C1605      C1606   1.412       .  A
C1605      C3274   1.416       .  A
C1605      H1612   1.083       .  S
C1606      C3271   1.423       .  A
C1607      C3270   1.424   1_455  A
C1607      C1608   1.421       .  A
C1607     Br1614   1.919   1_455  S
C1608      C1609   1.413       .  A
C1608      H1613   1.083       .  S
C1609      C1610   1.425       .  A
C1610      C3269   1.420       .  A
C1610     Br3275   1.921       .  S
Br1611     C3274   1.921       .  S
C1615      C1616   1.405       .  A
C1615      C1620   1.394       .  A
C1615      H1622   1.084       .  S
C1616      C1617   1.407       .  A
C1617      C1618   1.392       .  A
C1617     Br1624   1.921       .  S
C1618      C1619   1.404       .  A
C1619      C1620   1.405       .  A
C1620     Br1621   1.921       .  S
C1625      C1626   1.400       .  A
C1625      C1630   1.382   1_565  A
C1626      C1627   1.420       .  A
C1627      C1628   1.407       .  A
C1627     Br1634   1.919       .  S
C1628      C1629   1.401       .  A
C1628      H1633   1.084       .  S
C1629      C1630   1.409   1_565  A
C1635      C1636   1.399       .  A
C1635      C3304   1.386       .  A
C1635      H1642   1.085       .  S
C1636      C3301   1.401       .  A
C1637      C3300   1.400   1_455  A
C1637      C1638   1.385       .  A
C1637     Br1644   1.917       .  S
C1638      C1639   1.399       .  A
C1638      H1643   1.084       .  S
C1639      C1640   1.402       .  A
C1640      C3299   1.386   1_455  A
C1640     Br1641   1.920       .  S
C1645      C1650   1.404   1_545  A
C1645      H1652   1.084       .  S
C1646      C1647   1.419       .  A
C1647      C1648   1.400       .  A
C1647     Br1654   1.920       .  S
C1648      H1653   1.084       .  S
C1649      C1650   1.420       .  A
C1650     Br1651   1.922   1_565  S
C1655      C1656   1.414       .  A
C1655      C1660   1.405       .  A
C1655      H1662   1.083       .  S
C1656      C1657   1.405       .  A
C1657      C1658   1.408       .  A
C1657     Br1664   1.917       .  S
C1658      C1659   1.416       .  A
C1658      H1663   1.084       .  S
C1659      C1660   1.406       .  A
C1660     Br1661   1.918       .  S
O1665      C1680   1.273       .  A
O1665     Al1673   1.979       .  S
C1666      O1676   1.254       .  A
C1666      O1667   1.266       .  A
C1666      C2481   1.491       .  S
O1667     Al1669   1.928       .  S
O1668      C1670   1.268       .  A
O1668     Al1669   1.896       .  S
Al1669     O2509   1.939       .  S
Al1669     O2511   1.924       .  S
Al1669     O1678   1.773       .  S
C1670      O1683   1.263       .  A
C1670      C2458   1.470       .  S
O1671      C1681   1.280       .  A
O1671     Al1673   1.999       .  S
O1672      C1685   1.252       .  A
O1672     Al1682   1.882       .  S
Al1673     O1686   1.883       .  S
Al1673     O1683   1.895       .  S
Al1673     O1678   1.780       .  S
O1674      C1681   1.261       .  A
O1674     Al1682   1.879       .  S
O1675      C1684   1.255       .  A
O1675     Al1682   1.848       .  S
O1676     Al1682   1.898       .  S
O1677      C2516   1.271   1_545  A
O1677     Al2501   1.952   1_545  S
O1678     Al1682   1.781       .  S
O1679      C2512   1.268   1_545  A
O1679     Al2501   1.934   1_545  S
C1680      O2511   1.265       .  A
C1680      C3273   1.529       .  S
C1681      C2488   1.501       .  S
C1684      O2509   1.267       .  A
C1684      C3283   1.461       .  S
C1685      O1686   1.259       .  A
C1685      C2471   1.435       .  S
O1687      C1702   1.269       .  A
O1687     Al1695   1.958       .  S
C1688      O1698   1.258       .  A
C1688      O1689   1.268       .  A
C1688      C2418   1.490       .  S
O1689     Al1691   1.932       .  S
O1690      C1692   1.271       .  A
O1690     Al1691   1.937       .  S
Al1691     O1699   1.948       .  S
Al1691     O1701   1.947       .  S
Al1691     O1700   1.789       .  S
C1692      O1705   1.264       .  A
C1692      C2398   1.479       .  S
O1693      C1703   1.273       .  A
O1693     Al1695   1.982       .  S
O1694      C1707   1.257       .  A
O1694     Al1704   1.899       .  S
Al1695     O1708   1.866       .  S
Al1695     O1705   1.871       .  S
Al1695     O1700   1.772       .  S
O1696      C1703   1.260       .  A
O1696     Al1704   1.893       .  S
O1697      C1706   1.251       .  A
O1697     Al1704   1.841       .  S
O1698     Al1704   1.895       .  S
O1699      C1706   1.268       .  A
O1700     Al1704   1.781       .  S
O1701      C1702   1.268       .  A
C1702      C2388   1.530       .  S
C1703      C2428   1.502       .  S
C1706      C2408   1.464       .  S
C1707      O1708   1.258       .  A
C1707      C2468   1.436       .  S
O1709      C1724   1.265       .  A
O1709     Al1717   1.873       .  S
C1710      O1720   1.265       .  A
C1710      O1711   1.253       .  A
C1710      C2491   1.490       .  S
O1711     Al1713   1.883       .  S
O1712      C1714   1.259       .  A
O1712     Al1713   1.898       .  S
Al1713     O1721   1.829       .  S
Al1713     O1723   1.910       .  S
Al1713     O1722   1.784       .  S
C1714      O1727   1.267       .  A
C1714      C2421   1.481       .  S
O1715      C1725   1.268       .  A
O1715     Al1717   1.876       .  S
O1716      C1729   1.265       .  A
O1716     Al1726   1.944       .  S
Al1717     O1730   1.927       .  S
Al1717     O1727   1.957       .  S
Al1717     O1722   1.778       .  S
O1718      C1725   1.276       .  A
O1718     Al1726   1.935       .  S
O1719      C1728   1.271       .  A
O1719     Al1726   1.945       .  S
O1720     Al1726   1.940       .  S
O1721      C1728   1.252       .  A
O1722     Al1726   1.781       .  S
O1723      C1724   1.260       .  A
C1724      C2381   1.455       .  S
C1725      C2368   1.473       .  S
C1728      C2358   1.464       .  S
C1729      O1730   1.257       .  A
C1729      C2348   1.517       .  S
O1731      C1746   1.261       .  A
O1731     Al1739   1.894       .  S
C1732      O2574   1.270       .  A
C1732      O2565   1.260       .  A
C1732      C2431   1.512       .  S
O1733      C2564   1.259   1_545  A
O1733     Al1735   1.910       .  S
O1734      C1736   1.262       .  A
O1734     Al1735   1.890       .  S
Al1735     O1743   1.847       .  S
Al1735     O1745   1.901       .  S
Al1735     O1744   1.779       .  S
C1736      O1749   1.277       .  A
C1736      C2478   1.490       .  S
O1737      C1747   1.256       .  A
O1737     Al1739   1.862       .  S
O1738      C1751   1.268       .  A
O1738     Al1748   1.929       .  S
Al1739     O1752   1.971       .  S
Al1739     O1749   1.966       .  S
Al1739     O1744   1.769       .  S
O1740      C1747   1.267       .  A
O1740     Al1748   1.913       .  S
O1741      C1750   1.269       .  A
O1741     Al1748   1.934       .  S
O1742      C2564   1.267   1_545  A
O1742     Al1748   1.939       .  S
O1743      C1750   1.255       .  A
O1744     Al1748   1.781       .  S
O1745      C1746   1.253       .  A
C1746      C2378   1.448       .  S
C1747      C2341   1.463       .  S
C1750      C2328   1.447       .  S
C1751      O1752   1.271       .  A
C1751      C2318   1.531       .  S
O1753      C1768   1.258       .  A
O1753     Al1761   1.878       .  S
C1754      O1764   1.268       .  A
C1754      O1755   1.261       .  A
C1754      C2298   1.483       .  S
O1755     Al1757   1.920       .  S
O1756      C1758   1.260       .  A
O1756     Al1757   1.891       .  S
Al1757     O1765   1.851       .  S
Al1757     O1767   1.901       .  S
Al1757     O1766   1.775       .  S
C1758      O1771   1.276       .  A
C1758      C2308   1.498       .  S
O1759      C1769   1.262       .  A
O1759     Al1761   1.880       .  S
O1760      C2605   1.266   1_545  A
O1760     Al2602   1.927       .  S
Al1761     O1774   1.966       .  S
Al1761     O1771   1.976       .  S
Al1761     O1766   1.767       .  S
O1762      C1769   1.264       .  A
O1762     Al1770   1.916       .  S
O1763      C2604   1.264       .  A
O1763     Al2602   1.931       .  S
O1764     Al1770   1.931       .  S
O1765      C1772   1.253       .  A
O1766     Al1770   1.780       .  S
O1767      C1768   1.255       .  A
C1768      C2288   1.443       .  S
C1769      C2278   1.481       .  S
Al1770     O2592   1.935       .  S
Al1770     O2595   1.949       .  S
C1772      O2595   1.268       .  A
C1772      C3170   1.468       .  S
C1773      O2592   1.270       .  A
C1773      O1774   1.273       .  A
C1773      C3100   1.525       .  S
O1775      C1790   1.256       .  A
O1775     Al1783   1.867       .  S
C1776      O1786   1.271       .  A
C1776      O1777   1.259       .  A
C1776      C2251   1.501       .  S
O1777     Al1779   1.908       .  S
O1778      C1780   1.258       .  A
O1778     Al1779   1.883       .  S
Al1779     O1787   1.860       .  S
Al1779     O1789   1.902       .  S
Al1779     O1788   1.777       .  S
C1780      O1793   1.278       .  A
C1780      C2258   1.501       .  S
O1781      C1791   1.265       .  A
O1781     Al1783   1.888       .  S
O1782      C1795   1.274       .  A
O1782     Al1792   1.945       .  S
Al1783     O1796   1.960       .  S
Al1783     O1793   1.987       .  S
Al1783     O1788   1.770       .  S
O1784      C1791   1.263       .  A
O1784     Al1792   1.910       .  S
O1785      C1794   1.267       .  A
O1785     Al1792   1.942       .  S
O1786     Al1792   1.942       .  S
O1787      C1794   1.253       .  A
O1788     Al1792   1.781       .  S
O1789      C1790   1.254       .  A
C1790      C2291   1.443       .  S
C1791      C2238   1.483       .  S
C1794      C2371   1.458       .  S
C1795      O1796   1.270       .  A
C1795      C2228   1.528       .  S
O1797      C1812   1.264       .  A
O1797     Al1805   1.939       .  S
C1798      O2640   1.253       .  A
C1798      O2631   1.270       .  A
C1798      C2261   1.498       .  S
O1799      C2630   1.270   1_545  A
O1799     Al1801   1.942       .  S
O1800      C1802   1.269       .  A
O1800     Al1801   1.928       .  S
Al1801     O1809   1.951       .  S
Al1801     O1811   1.941       .  S
Al1801     O1810   1.780       .  S
C1802      O1815   1.259       .  A
C1802      C2448   1.461       .  S
O1803      C1813   1.269       .  A
O1803     Al1805   1.948       .  S
O1804      C1817   1.255       .  A
O1804     Al1814   1.895       .  S
Al1805     O1818   1.880       .  S
Al1805     O1815   1.869       .  S
Al1805     O1810   1.770       .  S
O1806      C1813   1.262       .  A
O1806     Al1814   1.888       .  S
O1807      C1816   1.255       .  A
O1807     Al1814   1.847       .  S
O1808      C2630   1.257   1_545  A
O1808     Al1814   1.904       .  S
O1809      C1816   1.270       .  A
O1810     Al1814   1.778       .  S
O1811      C1812   1.270       .  A
C1812      C2351   1.516       .  S
C1816      C2208   1.469       .  S
C1817      O1818   1.259       .  A
C1817      C2221   1.438       .  S
O1819      C1834   1.267       .  A
O1819     Al1827   1.956       .  S
C1820      O1830   1.257       .  A
C1820      O1821   1.270       .  A
C1820      C2311   1.502       .  S
O1821     Al1823   1.939       .  S
O1822      C1824   1.270       .  A
O1822     Al1823   1.918       .  S
Al1823     O1831   1.941       .  S
Al1823     O1833   1.949       .  S
Al1823     O1832   1.786       .  S
C1824      O1837   1.261       .  A
C1824      C2411   1.467       .  S
O1825     Al1827   1.973       .  S
O1826      C1839   1.255       .  A
O1826     Al1836   1.893       .  S
Al1827     O1840   1.875       .  S
Al1827     O1837   1.876       .  S
Al1827     O1832   1.771       .  S
O1828     Al1836   1.893       .  S
O1829      C1838   1.251       .  A
O1829     Al1836   1.836       .  S
O1830     Al1836   1.903       .  S
O1831      C1838   1.267       .  A
O1832     Al1836   1.781       .  S
O1833      C1834   1.270       .  A
C1834      C2321   1.531       .  S
C1835      C2248   1.492       .  S
C1838      C2201   1.458       .  S
C1839      O1840   1.258       .  A
C1839      C2218   1.439       .  S
O1841      C1856   1.265       .  A
O1841     Al1849   1.949       .  S
C1842      O1852   1.259       .  A
C1842      O1843   1.267       .  A
C1842      C2178   1.500       .  S
O1843     Al1845   1.938       .  S
O1844      C1846   1.270   1_554  A
O1844     Al1845   1.916       .  S
Al1845     O1853   1.938       .  S
Al1845     O1855   1.946       .  S
Al1845     O1854   1.787       .  S
C1846      O1859   1.261   1_556  A
C1846      C2198   1.466       .  S
O1847      C1857   1.272       .  A
O1847     Al1849   1.969       .  S
O1848      C1861   1.260       .  A
O1848     Al1858   1.920       .  S
Al1849     O1862   1.869       .  S
Al1849     O1859   1.871       .  S
Al1849     O1854   1.771       .  S
O1850      C1857   1.260       .  A
O1850     Al1858   1.894       .  S
O1851      C1860   1.254       .  A
O1851     Al1858   1.835       .  S
O1852     Al1858   1.901       .  S
O1853      C1860   1.267       .  A
O1854     Al1858   1.778       .  S
O1855      C1856   1.269       .  A
C1856      C2231   1.528   1_554  S
C1857      C2188   1.494       .  S
C1860      C2158   1.455       .  S
C1861      O1862   1.260       .  A
C1861      C2171   1.459       .  S
O1863      C1878   1.257       .  A
O1863     Al1871   1.882       .  S
C1864      O1874   1.270       .  A
C1864      O1865   1.258       .  A
C1864      C2148   1.498       .  S
O1865     Al1867   1.905       .  S
O1866      C1868   1.260       .  A
O1866     Al1867   1.882       .  S
Al1867     O1875   1.859       .  S
Al1867     O1877   1.892       .  S
Al1867     O1876   1.778       .  S
C1868      O1881   1.278       .  A
O1869      C1879   1.262       .  A
O1869     Al1871   1.887       .  S
O1870      C1883   1.269       .  A
O1870     Al1880   1.936       .  S
Al1871     O1884   1.966       .  S
Al1871     O1881   1.990       .  S
Al1871     O1876   1.773       .  S
O1872      C1879   1.268       .  A
O1872     Al1880   1.922       .  S
O1873      C1882   1.269       .  A
O1873     Al1880   1.953       .  S
O1874     Al1880   1.940       .  S
O1875      C1882   1.254       .  A
O1876     Al1880   1.780       .  S
O1877      C1878   1.255       .  A
C1878      C2138   1.444       .  S
C1879      C2128   1.477       .  S
C1882      C2241   1.461       .  S
C1883      O1884   1.273       .  A
C1883      C2118   1.528       .  S
O1885      C1900   1.275       .  A
O1885     Al1893   1.972       .  S
C1886      O1896   1.264       .  A
C1886      O1887   1.269       .  A
C1886      C2108   1.504       .  S
O1887     Al1889   1.933       .  S
O1888      C1890   1.267   1_554  A
O1888     Al1889   1.932       .  S
Al1889     O1897   1.948       .  S
Al1889     O1899   1.913       .  S
Al1889     O1898   1.781       .  S
C1890      O1903   1.254   1_556  A
C1890      C2211   1.469       .  S
O1891      C1901   1.277       .  A
O1891     Al1893   1.968       .  S
O1892      C1905   1.257       .  A
O1892     Al1902   1.917       .  S
Al1893     O1906   1.882       .  S
Al1893     O1903   1.863       .  S
Al1893     O1898   1.764       .  S
O1894      C1901   1.259       .  A
O1894     Al1902   1.882       .  S
O1895      C1904   1.255       .  A
O1895     Al1902   1.848       .  S
O1896     Al1902   1.921       .  S
O1897      C1904   1.269       .  A
O1898     Al1902   1.775       .  S
O1899      C1900   1.265       .  A
C1900      C2271   1.518       .  S
C1901      C2151   1.491       .  S
C1904      C2098   1.462       .  S
C1905      O1906   1.257       .  A
C1905      C2168   1.453       .  S
O1907      C1922   1.260       .  A
O1907     Al1915   1.881       .  S
C1908      O1918   1.268       .  A
C1908      O1909   1.259       .  A
C1908      C2191   1.486       .  S
O1909     Al2743   1.908   1_545  S
O1910     Al2743   1.892   1_545  S
Al1911     O2741   1.901       .  S
Al1911     O2742   1.890       .  S
Al1911     O1919   1.849       .  S
Al1911     O1921   1.898       .  S
Al1911     O1920   1.779       .  S
C1912      O2757   1.272   1_545  A
C1912      C2111   1.487       .  S
O1913      C2755   1.263       .  A
O1913     Al1915   1.873       .  S
O1914      C1927   1.270       .  A
O1914     Al1924   1.950       .  S
Al1915     O1928   1.953       .  S
Al1915     O1920   1.771       .  S
O1916      C1923   1.267       .  A
O1916     Al2756   1.918   1_545  S
O1917      C1926   1.266       .  A
O1917     Al1924   1.941       .  S
O1918     Al2756   1.935   1_545  S
O1919      C1926   1.252       .  A
O1920     Al1924   1.786       .  S
O1921      C1922   1.257       .  A
C1922      C2141   1.439       .  S
C1923      O2745   1.261   1_545  A
C1923      C2088   1.469       .  S
Al1924     O2748   1.922       .  S
Al1924     O2750   1.926       .  S
O1925      C2744   1.272       .  A
C1926      C2281   1.451       .  S
C1927      O1928   1.268       .  A
C1927      C2078   1.525       .  S
O1929      C1944   1.259       .  A
O1929     Al1937   1.885       .  S
C1930      O1940   1.269       .  A
C1930      O1931   1.258       .  A
C1930      C2071   1.483       .  S
O1931     Al1933   1.901       .  S
O1932      C1934   1.261       .  A
O1932     Al1933   1.884       .  S
Al1933     O1941   1.857       .  S
Al1933     O1943   1.887       .  S
Al1933     O1942   1.772       .  S
C1934      O1947   1.278       .  A
C1934      C2058   1.497       .  S
O1935      C1945   1.258       .  A
O1935     Al1937   1.859       .  S
O1936      C1949   1.266       .  A
O1936     Al1946   1.926       .  S
Al1937     O1950   1.983       .  S
Al1937     O1947   1.985       .  S
Al1937     O1942   1.770       .  S
O1938      C1945   1.266       .  A
O1938     Al1946   1.919       .  S
O1939      C1948   1.267       .  A
O1939     Al1946   1.932       .  S
O1940     Al1946   1.936       .  S
O1941      C1948   1.254       .  A
O1942     Al1946   1.784       .  S
O1943      C1944   1.252       .  A
C1944      C2048   1.437       .  S
C1945      C2331   1.465       .  S
C1948      C2091   1.449       .  S
C1949      O1950   1.275       .  A
C1949      C2438   1.529       .  S
O1951      C1966   1.259       .  A
O1951     Al1959   1.856       .  S
C1952      O1962   1.268       .  A
C1952      O1953   1.257       .  A
C1952      C2028   1.491       .  S
O1953     Al1955   1.887       .  S
O1954      C1956   1.258       .  A
O1954     Al1955   1.880       .  S
Al1955     O1963   1.841       .  S
Al1955     O1965   1.905       .  S
Al1955     O1964   1.776       .  S
C1956      O1969   1.272       .  A
C1956      C2041   1.498       .  S
O1957      C1967   1.260       .  A
O1957     Al1959   1.872       .  S
O1958      C1971   1.270       .  A
O1958     Al1968   1.943       .  S
Al1959     O1972   1.964       .  S
Al1959     O1969   1.970       .  S
Al1959     O1964   1.767       .  S
O1960      C1967   1.270       .  A
O1960     Al1968   1.927       .  S
O1961      C1970   1.270       .  A
O1961     Al1968   1.955       .  S
O1962     Al1968   1.938       .  S
O1963      C1970   1.253       .  A
O1964     Al1968   1.778       .  S
O1965      C1966   1.256       .  A
C1966      C2051   1.444       .  S
C1967      C2361   1.460       .  S
C1970      C2131   1.463       .  S
C1971      O1972   1.271       .  A
C1971      C2391   1.527       .  S
O1973      C1988   1.272       .  A
O1973     Al1981   1.967       .  S
C1974      O1984   1.261       .  A
C1974      O1975   1.272       .  A
C1974      C2061   1.501       .  S
O1975     Al1977   1.947       .  S
O1976      C1978   1.268       .  A
O1976     Al1977   1.927       .  S
Al1977     O1985   1.952       .  S
Al1977     O1987   1.945       .  S
Al1977     O1986   1.782       .  S
C1978      O1991   1.256       .  A
C1978      C2161   1.467       .  S
O1979      C1989   1.273       .  A
O1979     Al1981   1.958       .  S
O1980      C1993   1.253       .  A
O1980     Al1990   1.896       .  S
Al1981     O1994   1.879       .  S
Al1981     O1991   1.864       .  S
Al1981     O1986   1.767       .  S
O1982      C1989   1.261       .  A
O1982     Al1990   1.884       .  S
O1983      C1992   1.253       .  A
O1983     Al1990   1.853       .  S
O1984     Al1990   1.911       .  S
O1985      C1992   1.270       .  A
O1986     Al1990   1.775       .  S
O1987      C1988   1.273       .  A
C1988      C2081   1.527       .  S
C1989      C2031   1.486       .  S
C1992      C2401   1.457       .  S
C1993      O1994   1.259       .  A
C1993      C2018   1.439       .  S
O1995      C2010   1.268       .  A
O1995     Al2003   1.959       .  S
C1996      O2006   1.253       .  A
C1996      O1997   1.261       .  A
C1996      C2038   1.476       .  S
O1997     Al2831   1.919   1_545  S
O1998      C2000   1.280       .  A
O1998     Al2831   1.945       .  S
Al1999     O2829   1.937       .  S
Al1999     O2830   1.948       .  S
Al1999     O2007   1.978       .  S
Al1999     O2009   1.946       .  S
Al1999     O2008   1.778       .  S
C2000      O2845   1.268       .  A
C2000      C2101   1.462       .  S
O2001      C2843   1.273       .  A
O2001     Al2003   1.987       .  S
O2002      C2015   1.262       .  A
O2002     Al2012   1.916       .  S
Al2003     O2016   1.858       .  S
Al2003     O2013   1.864       .  S
Al2003     O2008   1.772       .  S
O2004      C2843   1.257       .  A
O2004     Al2012   1.890       .  S
O2005      C2014   1.249       .  A
O2005     Al2012   1.836       .  S
O2006     Al2844   1.881       .  S
O2007      C2014   1.276       .  A
O2008     Al2012   1.771       .  S
O2009      C2010   1.268       .  A
C2010      C2121   1.530       .  S
C2011      O2833   1.267   1_545  A
C2011      O2836   1.253       .  A
C2011      C2068   1.496       .  S
Al2012     O2838   1.901       .  S
O2013      C2832   1.263       .  A
C2014      C2461   1.471       .  S
C2015      O2016   1.262       .  A
C2015      C2021   1.452       .  S
C2017      C2018   1.397       .  A
C2017      C2022   1.392       .  A
C2017      H2024   1.083       .  S
C2018      C2019   1.402       .  A
C2019      C2020   1.381       .  A
C2019     Br2026   1.913       .  S
C2020      C2021   1.398       .  A
C2020      H2025   1.085       .  S
C2021      C2022   1.406       .  A
C2022     Br2023   1.913       .  S
C2027      C2028   1.411       .  A
C2027      C2032   1.398       .  A
C2027      H2034   1.083       .  S
C2028      C2029   1.410       .  A
C2029      C2030   1.405       .  A
C2029     Br2036   1.919       .  S
C2030      C2031   1.411       .  A
C2030      H2035   1.083       .  S
C2031      C2032   1.406       .  A
C2032     Br2033   1.916       .  S
C2037      C2038   1.403       .  A
C2037      C2042   1.404       .  A
C2037      H2044   1.084       .  S
C2038      C2039   1.401       .  A
C2039      C2040   1.402       .  A
C2039     Br2046   1.914       .  S
C2040      C2041   1.414       .  A
C2040      H2045   1.083       .  S
C2041      C2042   1.418       .  A
C2042     Br2043   1.921       .  S
C2047      C2052   1.392       .  A
C2047      H2054   1.082       .  S
C2048      C2049   1.404       .  A
C2049     Br2056   1.912       .  S
C2050      C2051   1.396       .  A
C2050      H2055   1.085       .  S
C2051      C2052   1.405       .  A
C2052     Br2053   1.918       .  S
C2057      C2058   1.412       .  A
C2057      C2062   1.406       .  A
C2057      H2064   1.083       .  S
C2058      C2059   1.407       .  A
C2059      C2060   1.408       .  A
C2059     Br2066   1.918       .  S
C2060      C2061   1.416       .  A
C2060      H2065   1.083       .  S
C2061      C2062   1.411       .  A
C2062     Br2063   1.919       .  S
C2067      C2068   1.409   1_565  A
C2067      C2072   1.409   1_565  A
C2067      H2906   1.083       .  S
C2068      C2069   1.414       .  A
C2069      C2070   1.402       .  A
C2069     Br2076   1.916       .  S
C2070      C2071   1.403       .  A
C2070      H2075   1.084       .  S
C2071      C2072   1.408       .  A
C2072     Br2905   1.918   1_545  S
Br2073     C2904   1.918       .  S
H2074      C2899   1.082       .  S
C2077      C2078   1.413       .  A
C2077      C2082   1.414       .  A
C2077      H2084   1.083       .  S
C2078      C2079   1.418       .  A
C2079      C2080   1.420       .  A
C2079     Br2086   1.919       .  S
C2080      C2081   1.417       .  A
C2080      H2085   1.083       .  S
C2081      C2082   1.418       .  A
C2082     Br2083   1.919       .  S
C2087      C2088   1.406       .  A
C2087      C2092   1.392       .  A
C2087      H2926   1.084       .  S
C2088      C2089   1.417   1_545  A
C2089      C2090   1.390   1_565  A
C2089     Br2096   1.924       .  S
C2090      C2091   1.396       .  A
C2090      H2095   1.083   1_545  S
C2091      C2092   1.403       .  A
C2092     Br2925   1.919   1_655  S
Br2093     C2924   1.916   1_455  S
H2094      C2919   1.084       .  S
C2097      C2098   1.406       .  A
C2097      C2102   1.391       .  A
C2097      H2104   1.084       .  S
C2098      C2099   1.408   1_545  A
C2099      C2100   1.395       .  A
C2099     Br2106   1.920       .  S
C2100      C2101   1.404       .  A
C2100      H2105   1.084       .  S
C2101      C2102   1.406   1_565  A
C2102     Br2103   1.922       .  S
C2107      C2108   1.417       .  A
C2107      C2112   1.406       .  A
C2107      H2114   1.083       .  S
C2108      C2109   1.416       .  A
C2109      C2110   1.405       .  A
C2109     Br2948   1.921       .  S
C2110      C2111   1.406       .  A
C2110      H2947   1.084       .  S
C2111      C2112   1.404       .  A
C2112     Br2113   1.918       .  S
H2115      C2942   1.084       .  S
Br2116     C2941   1.919       .  S
C2117      C2118   1.414       .  A
C2117      C2122   1.418       .  A
C2117      H2124   1.083       .  S
C2118      C2119   1.421       .  A
C2119      C2120   1.416       .  A
C2119     Br2126   1.921       .  S
C2120      C2121   1.415       .  A
C2120      H2125   1.083       .  S
C2121      C2122   1.421       .  A
C2122     Br2123   1.919       .  S
C2127      C2128   1.408       .  A
C2127      C2132   1.397       .  A
C2127      H2134   1.084       .  S
C2128      C2129   1.408       .  A
C2129      C2130   1.395       .  A
C2129     Br2136   1.908       .  S
C2130      C2131   1.404       .  A
C2130      H2135   1.085       .  S
C2131      C2132   1.405       .  A
C2132     Br2133   1.918       .  S
C2137      C2138   1.402       .  A
C2138      C2139   1.403       .  A
C2139      C2140   1.385       .  A
C2139     Br2146   1.915       .  S
C2140      H2145   1.085       .  S
C2141      C2142   1.399       .  A
C2142     Br2143   1.916       .  S
C2147      C2148   1.403       .  A
C2147      C2152   1.404       .  A
C2147      H2154   1.083       .  S
C2148      C2149   1.424       .  A
C2149      C2150   1.403       .  A
C2149     Br2156   1.921       .  S
C2150      C2151   1.399       .  A
C2150      H2155   1.084       .  S
C2151      C2152   1.420       .  A
C2152     Br2153   1.921       .  S
C2157      C2158   1.403       .  A
C2157      C2162   1.391       .  A
C2157      H2164   1.085       .  S
C2158      C2159   1.404       .  A
C2159      C2160   1.395       .  A
C2159     Br2166   1.919       .  S
C2160      C2161   1.407       .  A
C2160      H2165   1.084       .  S
C2161      C2162   1.408       .  A
C2162     Br2163   1.918       .  S
C2167      C2168   1.400       .  A
C2167      C2172   1.398       .  A
C2167      H2174   1.084       .  S
C2168      C2169   1.406       .  A
C2169      C2170   1.383       .  A
C2169     Br2176   1.912       .  S
C2170      C2171   1.396       .  A
C2170      H2175   1.085       .  S
C2171      C2172   1.409       .  A
C2172     Br2173   1.916       .  S
C2177      C2178   1.414       .  A
C2177      C2182   1.405       .  A
C2177      H2184   1.083       .  S
C2178      C2179   1.412       .  A
C2179      C2180   1.407       .  A
C2179     Br2186   1.919       .  S
C2180      C2181   1.411       .  A
C2180      H2185   1.084   1_655  S
C2181      C2182   1.405       .  A
C2187      C2188   1.407       .  A
C2187      C2192   1.405       .  A
C2187      H2194   1.083       .  S
C2188      C2189   1.415       .  A
C2189      C2190   1.408       .  A
C2189     Br2196   1.920       .  S
C2190      C2191   1.405       .  A
C2190      H2195   1.084       .  S
C2191      C2192   1.409       .  A
C2192     Br2193   1.918       .  S
C2197      C2198   1.407       .  A
C2197      C2202   1.393       .  A
C2197      H2204   1.084       .  S
C2198      C2199   1.407       .  A
C2199      C2200   1.394       .  A
C2199     Br2206   1.922       .  S
C2200      C2201   1.406       .  A
C2200      H2205   1.084       .  S
C2201      C2202   1.403       .  A
C2202     Br2203   1.920       .  S
C2207      C2208   1.407       .  A
C2207      C2212   1.393       .  A
C2207      H2214   1.084       .  S
C2208      C2209   1.406       .  A
C2209      C2210   1.398       .  A
C2209     Br2216   1.921       .  S
C2210      C2211   1.406       .  A
C2210      H2215   1.084       .  S
C2211      C2212   1.408       .  A
C2212     Br2213   1.922       .  S
C2217      C2222   1.388       .  A
C2217      H2224   1.085       .  S
C2218      C2219   1.401       .  A
C2219     Br2226   1.920       .  S
C2220      C2221   1.399       .  A
C2221      C2222   1.400       .  A
C2222     Br2223   1.919       .  S
C2227      C2228   1.410       .  A
C2227      C2232   1.415       .  A
C2227      H2234   1.083       .  S
C2228      C2229   1.426       .  A
C2229      C2230   1.417   1_556  A
C2229     Br2236   1.921       .  S
C2230      C2231   1.411   1_554  A
C2230      H2235   1.083       .  S
C2231      C2232   1.425       .  A
C2232     Br2233   1.922       .  S
C2237      C2238   1.404   1_554  A
C2237      C2242   1.395       .  A
C2237      H2244   1.083       .  S
C2238      C2239   1.423   1_556  A
C2239      C2240   1.397       .  A
C2239     Br2246   1.924   1_554  S
C2240      C2241   1.395       .  A
C2240      H2245   1.084       .  S
C2241      C2242   1.403       .  A
C2242     Br2243   1.910       .  S
C2247      C2248   1.399       .  A
C2247      C2252   1.406       .  A
C2247      H2254   1.084       .  S
C2248      C2249   1.418       .  A
C2249      C2250   1.405       .  A
C2249     Br2256   1.919       .  S
C2250      C2251   1.403       .  A
C2250      H2255   1.083       .  S
C2251      C2252   1.425       .  A
C2252     Br2253   1.922       .  S
C2257      C2258   1.401       .  A
C2257      C2262   1.406       .  A
C2257      H2264   1.083       .  S
C2258      C2259   1.426       .  A
C2259      C2260   1.406       .  A
C2259     Br2266   1.921       .  S
C2260      C2261   1.399       .  A
C2260      H2265   1.084       .  S
C2261      C2262   1.423       .  A
C2262     Br2263   1.921       .  S
C2267      C3100   1.413       .  A
C2267      C3104   1.414   1_556  A
C2267      H2274   1.083       .  S
C2268      C2605   1.519   1_545  S
C2268      C3099   1.410   1_545  A
C2268      C2269   1.422       .  A
C2269      C2270   1.414       .  A
C2269     Br2276   1.920       .  S
C2270      C2271   1.411   1_556  A
C2270      H2275   1.083       .  S
C2271      C2272   1.421       .  A
C2272      C3099   1.410   1_544  A
C2272     Br3105   1.923   1_545  S
Br2273     C3104   1.921       .  S
C2277      C2278   1.411   1_554  A
C2277      C2282   1.394       .  A
C2277      H2284   1.083   1_554  S
C2278      C2279   1.418   1_556  A
C2279      C2280   1.395       .  A
C2279     Br2286   1.925   1_554  S
C2280      C2281   1.400       .  A
C2280      H2285   1.084       .  S
C2281      C2282   1.398       .  A
C2282     Br2283   1.916       .  S
C2287      C2288   1.397       .  A
C2287      C2292   1.391       .  A
C2287      H2294   1.084       .  S
C2288      C2289   1.404       .  A
C2289      C2290   1.384       .  A
C2289     Br2296   1.912       .  S
C2290      C2291   1.395       .  A
C2290      H2295   1.084       .  S
C2291      C2292   1.406       .  A
C2292     Br2293   1.915       .  S
C2297      C3130   1.410       .  A
C2297      C2302   1.400       .  A
C2297      H2304   1.083       .  S
C2298      C3129   1.403       .  A
C2298      C2299   1.404       .  A
C2299      C3132   1.404       .  A
C2299     Br2306   1.918       .  S
C2300      C3131   1.401       .  A
C2300      C2301   1.407       .  A
C2301      C2302   1.406       .  A
C2302     Br2303   1.916       .  S
C2307      C2308   1.402       .  A
C2307      C2312   1.408       .  A
C2307      H2314   1.083       .  S
C2308      C2309   1.421       .  A
C2309      C2310   1.404       .  A
C2309     Br2316   1.920       .  S
C2310      C2311   1.402       .  A
C2310      H2315   1.083       .  S
C2311      C2312   1.425       .  A
C2312     Br2313   1.923       .  S
C2317      C2318   1.411       .  A
C2317      C2322   1.415       .  A
C2317      H2324   1.083       .  S
C2318      C2319   1.424       .  A
C2319      C2320   1.420       .  A
C2319     Br2326   1.920       .  S
C2320      C2321   1.413       .  A
C2320      H2325   1.083       .  S
C2321      C2322   1.425       .  A
C2322     Br2323   1.922       .  S
C2327      C2328   1.396       .  A
C2327      C2332   1.391       .  A
C2327      H2334   1.085       .  S
C2328      C2329   1.404       .  A
C2329      C2330   1.389       .  A
C2329     Br2336   1.919       .  S
C2330      C2331   1.404       .  A
C2330      H2335   1.084       .  S
C2331      C2332   1.415       .  A
C2332     Br2333   1.921       .  S
C2337      C2338   1.404       .  A
C2337      C2342   1.392       .  A
C2337      H2344   1.084   1_545  S
C2338      C2604   1.459       .  S
C2338      C3171   1.407       .  A
C2339      C3170   1.406       .  A
C2339      C2340   1.395       .  A
C2339     Br2346   1.918       .  S
C2340      C3173   1.405       .  A
C2340      H2345   1.084       .  S
C2341      C3172   1.404       .  A
C2341      C2342   1.408       .  A
C2342     Br2343   1.922   1_545  S
C2347      C2348   1.409       .  A
C2347      C2352   1.413       .  A
C2347      H2354   1.083       .  S
C2348      C2349   1.422       .  A
C2349      C2350   1.412       .  A
C2349     Br2356   1.921       .  S
C2350      C2351   1.408       .  A
C2350      H2355   1.083       .  S
C2351      C2352   1.423       .  A
C2352     Br2353   1.921       .  S
C2357      C2358   1.410       .  A
C2357      C2362   1.394       .  A
C2357      H2364   1.085       .  S
C2358      C2359   1.405       .  A
C2359      C2360   1.395       .  A
C2359     Br2366   1.919       .  S
C2360      C2361   1.404       .  A
C2360      H2365   1.084       .  S
C2361      C2362   1.402       .  A
C2362     Br2363   1.921       .  S
C2367      C2368   1.405       .  A
C2367      C2372   1.395       .  A
C2367      H2374   1.083       .  S
C2368      C2369   1.416       .  A
C2369      C2370   1.394       .  A
C2369     Br2376   1.921       .  S
C2370      C2371   1.397       .  A
C2370      H2375   1.084       .  S
C2371      C2372   1.406       .  A
C2372     Br2373   1.920       .  S
C2377      C2378   1.398       .  A
C2377      C2382   1.393       .  A
C2377      H2384   1.081       .  S
C2378      C2379   1.405       .  A
C2379      C2380   1.383       .  A
C2379     Br2386   1.906       .  S
C2380      C2381   1.395       .  A
C2380      H2385   1.085       .  S
C2381      C2382   1.404       .  A
C2382     Br2383   1.913       .  S
C2387      C2388   1.414   1_455  A
C2387      H2394   1.083   1_455  S
C2389      C2390   1.418       .  A
C2389     Br2396   1.919       .  S
C2390      C2391   1.415       .  A
C2390      H2395   1.083       .  S
C2391      C2392   1.419       .  A
C2397      C2398   1.406       .  A
C2397      C2402   1.393       .  A
C2397      H2404   1.083       .  S
C2398      C2399   1.419       .  A
C2399      C2400   1.397       .  A
C2399     Br2406   1.923       .  S
C2400      C2401   1.399       .  A
C2400      H2405   1.084       .  S
C2401      C2402   1.404       .  A
C2402     Br2403   1.920       .  S
C2407      C2408   1.407       .  A
C2407      C2412   1.396       .  A
C2407      H2414   1.083       .  S
C2408      C2409   1.405       .  A
C2409      C2410   1.392       .  A
C2409     Br2416   1.911       .  S
C2410      C2411   1.404       .  A
C2410      H2415   1.084       .  S
C2411      C2412   1.406       .  A
C2412     Br2413   1.919       .  S
C2417      C2418   1.411       .  A
C2417      C2422   1.403       .  A
C2417      H2424   1.083       .  S
C2418      C2419   1.412       .  A
C2419      C2420   1.405       .  A
C2419     Br2426   1.921       .  S
C2420      C2421   1.405       .  A
C2420      H2425   1.081       .  S
C2421      C2422   1.404       .  A
C2422     Br2423   1.918       .  S
C2427      C2428   1.411       .  A
C2427      C2432   1.411       .  A
C2427      H2434   1.084       .  S
C2428      C2429   1.407       .  A
C2429      C2430   1.411       .  A
C2429     Br2436   1.918       .  S
C2430      C2431   1.417       .  A
C2430      H2435   1.083       .  S
C2431      C2432   1.415       .  A
C2432     Br2433   1.919       .  S
C2437      C2438   1.413   1_455  A
C2437      H2444   1.083   1_455  S
C2439      C2440   1.415       .  A
C2439     Br2446   1.922       .  S
C2440      C2441   1.412   1_565  A
C2440      H2445   1.083       .  S
C2441      C2512   1.529   1_545  S
C2441      C2442   1.423       .  A
C2447      C2448   1.405       .  A
C2447      C2452   1.396       .  A
C2447      H2454   1.084       .  S
C2448      C2449   1.402       .  A
C2449      C2450   1.392       .  A
C2449     Br2456   1.919   1_545  S
C2450      C2451   1.409       .  A
C2450      H3287   1.084   1_545  S
C2451      C2516   1.467   1_545  S
C2451      C2452   1.407       .  A
C2452     Br2453   1.921       .  S
H2455      C3282   1.083       .  S
C2457      C2458   1.392       .  A
C2457      C2462   1.379       .  A
C2457      H3296   1.085       .  S
C2458      C2459   1.417       .  A
C2459      C2460   1.410       .  A
C2459     Br2466   1.918       .  S
C2460      C2461   1.404       .  A
C2460      H2465   1.083       .  S
C2461      C2462   1.416       .  A
C2462     Br3295   1.921       .  S
Br2463     C3294   1.922       .  S
H2464      C3289   1.084   1_545  S
C2467      C2468   1.398       .  A
C2467      H2474   1.084       .  S
C2469      C2470   1.385       .  A
C2469     Br2476   1.920       .  S
C2470      C2471   1.398       .  A
C2470      H2475   1.085       .  S
C2471      C2472   1.400       .  A
C2472     Br2473   1.918       .  S
C2477      C3310   1.401       .  A
C2477      C2482   1.404       .  A
C2477      H2484   1.084       .  S
C2478      C3309   1.402       .  A
C2478      C2479   1.420   1_545  A
C2479      C2480   1.402       .  A
C2479     Br2486   1.920       .  S
C2480      C3313   1.400       .  A
C2480      H2485   1.084       .  S
C2481      C3312   1.400       .  A
C2481      C2482   1.423       .  A
C2482     Br2483   1.923       .  S
C2487      C2488   1.416       .  A
C2487      C2492   1.407       .  A
C2487      H2494   1.083       .  S
C2488      C2489   1.409       .  A
C2489      C2490   1.408       .  A
C2489     Br2496   1.917       .  S
C2490      C2491   1.411       .  A
C2490      H2495   1.084       .  S
C2491      C2492   1.404       .  A
C2492     Br2493   1.919       .  S
O2497      C2512   1.273       .  A
O2497     Al2505   1.967       .  S
C2498      O2508   1.253       .  A
C2498      O2499   1.268       .  A
C2498      C3313   1.488       .  S
O2499     Al2501   1.940       .  S
O2500      C2502   1.269       .  A
O2500     Al2501   1.905       .  S
Al2501     O2510   1.771       .  S
C2502      O2515   1.263       .  A
C2502      C3290   1.478       .  S
O2503      C2513   1.280       .  A
O2503     Al2505   1.998       .  S
O2504      C2517   1.252       .  A
O2504     Al2514   1.883       .  S
Al2505     O2518   1.886       .  S
Al2505     O2515   1.891       .  S
Al2505     O2510   1.774       .  S
O2506      C2513   1.258       .  A
O2506     Al2514   1.872       .  S
O2507      C2516   1.254       .  A
O2507     Al2514   1.842       .  S
O2508     Al2514   1.891       .  S
O2510     Al2514   1.774       .  S
C2513      C3320   1.493       .  S
C2517      O2518   1.260       .  A
C2517      C3303   1.438       .  S
O2519      C2534   1.267       .  A
O2519     Al2527   1.958       .  S
C2520      O2530   1.253       .  A
C2520      O2521   1.266       .  A
C2520      C3250   1.485       .  S
O2521     Al2523   1.935       .  S
O2522      C2524   1.275       .  A
O2522     Al2523   1.943       .  S
Al2523     O2531   1.962       .  S
Al2523     O2533   1.951       .  S
Al2523     O2532   1.787       .  S
C2524      O2537   1.262       .  A
C2524      C3230   1.472       .  S
O2525      C2535   1.272       .  A
O2525     Al2527   1.977       .  S
O2526      C2539   1.256       .  A
O2526     Al2536   1.894       .  S
Al2527     O2540   1.874       .  S
Al2527     O2537   1.864       .  S
Al2527     O2532   1.773       .  S
O2528      C2535   1.258       .  A
O2528     Al2536   1.888       .  S
O2529      C2538   1.252       .  A
O2529     Al2536   1.832       .  S
O2530     Al2536   1.873       .  S
O2531      C2538   1.272       .  A
O2532     Al2536   1.786       .  S
O2533      C2534   1.267       .  A
C2534      C3220   1.537       .  S
C2535      C3260   1.488       .  S
C2538      C3240   1.467       .  S
C2539      O2540   1.261       .  A
C2539      C3300   1.435       .  S
O2541      C2556   1.261       .  A
O2541     Al2549   1.872       .  S
C2542      O2552   1.268       .  A
C2542      O2543   1.253       .  A
C2542      C3323   1.494       .  S
O2543     Al2545   1.884       .  S
O2544      C2546   1.258       .  A
O2544     Al2545   1.885       .  S
Al2545     O2553   1.828       .  S
Al2545     O2555   1.909       .  S
Al2545     O2554   1.781       .  S
C2546      O2559   1.271       .  A
C2546      C3253   1.479       .  S
O2547      C2557   1.267       .  A
O2547     Al2549   1.887       .  S
O2548      C2561   1.268       .  A
O2548     Al2558   1.947       .  S
Al2549     O2562   1.938       .  S
Al2549     O2559   1.967       .  S
Al2549     O2554   1.777       .  S
O2550      C2557   1.270       .  A
O2550     Al2558   1.915       .  S
O2551      C2560   1.267       .  A
O2551     Al2558   1.933       .  S
O2552     Al2558   1.946       .  S
O2553      C2560   1.253       .  A
O2554     Al2558   1.779       .  S
O2555      C2556   1.257       .  A
C2556      C3213   1.457       .  S
C2557      C3200   1.474       .  S
C2560      C3190   1.456       .  S
C2561      O2562   1.262       .  A
C2561      C3180   1.522       .  S
O2563      C2578   1.260       .  A
O2563     Al2571   1.891       .  S
C2564      C3263   1.505       .  S
O2565     Al2567   1.918       .  S
O2566      C2568   1.261       .  A
O2566     Al2567   1.885       .  S
Al2567     O2575   1.845       .  S
Al2567     O2577   1.909       .  S
Al2567     O2576   1.779       .  S
C2568      O2581   1.277       .  A
C2568      C3310   1.487       .  S
O2569      C2579   1.255       .  A
O2569     Al2571   1.863       .  S
O2570      C2583   1.270       .  A
O2570     Al2580   1.940       .  S
Al2571     O2584   1.973       .  S
Al2571     O2581   1.969       .  S
Al2571     O2576   1.769       .  S
O2572      C2579   1.268       .  A
O2572     Al2580   1.926       .  S
O2573      C2582   1.272       .  A
O2573     Al2580   1.950       .  S
O2574     Al2580   1.953       .  S
O2575      C2582   1.254       .  A
O2576     Al2580   1.781       .  S
O2577      C2578   1.254       .  A
C2578      C3210   1.450       .  S
C2579      C3173   1.465       .  S
C2582      C3160   1.455       .  S
C2583      O2584   1.272       .  A
C2583      C3150   1.535       .  S
O2585      C2600   1.258       .  A
O2585     Al2593   1.869       .  S
C2586      O2596   1.263   1_565  A
C2586      O2587   1.262       .  A
C2586      C3130   1.487   1_565  S
O2587     Al2589   1.910       .  S
O2588      C2590   1.259       .  A
O2588     Al2589   1.891       .  S
Al2589     O2597   1.851       .  S
Al2589     O2599   1.905       .  S
Al2589     O2598   1.775       .  S
C2590      O2603   1.273       .  A
C2590      C3140   1.494       .  S
O2591      C2601   1.263       .  A
O2591     Al2593   1.882       .  S
Al2593     O2606   1.958       .  S
Al2593     O2603   1.970       .  S
Al2593     O2598   1.770       .  S
O2594      C2601   1.263       .  A
O2594     Al2602   1.902   1_565  S
O2596     Al2602   1.911       .  S
O2597      C2604   1.253   1_565  A
O2598     Al2602   1.781   1_565  S
O2599      C2600   1.257       .  A
C2600      C3120   1.441       .  S
C2601      C3110   1.474       .  S
C2605      O2606   1.271       .  A
O2607      C2622   1.259       .  A
O2607     Al2615   1.873       .  S
C2608      O2618   1.270       .  A
C2608      O2609   1.258       .  A
C2608      C3083   1.503       .  S
O2609     Al2611   1.913       .  S
O2610      C2612   1.259       .  A
O2610     Al2611   1.886       .  S
Al2611     O2619   1.855       .  S
Al2611     O2621   1.897       .  S
Al2611     O2620   1.777       .  S
C2612      O2625   1.279       .  A
C2612      C3090   1.501       .  S
O2613      C2623   1.262       .  A
O2613     Al2615   1.875       .  S
O2614      C2627   1.274       .  A
O2614     Al2624   1.952       .  S
Al2615     O2628   1.971       .  S
Al2615     O2625   1.988       .  S
Al2615     O2620   1.767       .  S
O2616      C2623   1.264       .  A
O2616     Al2624   1.912       .  S
O2617      C2626   1.270       .  A
O2617     Al2624   1.946       .  S
O2618     Al2624   1.944       .  S
O2619      C2626   1.253       .  A
O2620     Al2624   1.779       .  S
O2621      C2622   1.254       .  A
C2622      C3123   1.440       .  S
C2623      C3070   1.475   1_556  S
C2626      C3203   1.457       .  S
C2627      O2628   1.272       .  A
C2627      C3060   1.538       .  S
O2629      C2644   1.263       .  A
O2629     Al2637   1.940       .  S
C2630      C3093   1.496       .  S
O2631     Al2633   1.949       .  S
O2632      C2634   1.273       .  A
O2632     Al2633   1.933       .  S
Al2633     O2641   1.957       .  S
Al2633     O2643   1.951       .  S
Al2633     O2642   1.784       .  S
C2634      O2647   1.260       .  A
C2634      C3280   1.466       .  S
O2635      C2645   1.271       .  A
O2635     Al2637   1.964       .  S
O2636      C2649   1.256       .  A
O2636     Al2646   1.890       .  S
Al2637     O2650   1.882       .  S
Al2637     O2647   1.865       .  S
Al2637     O2642   1.774       .  S
O2638      C2645   1.262       .  A
O2638     Al2646   1.893       .  S
O2639      C2648   1.254       .  A
O2639     Al2646   1.840       .  S
O2640     Al2646   1.891       .  S
O2641      C2648   1.272       .  A
O2642     Al2646   1.779       .  S
O2643      C2644   1.270       .  A
C2644      C3183   1.523       .  S
C2648      C3040   1.471       .  S
C2649      O2650   1.260       .  A
C2649      C3053   1.440       .  S
O2651      C2666   1.270       .  A
O2651     Al2659   1.969       .  S
C2652      O2662   1.258       .  A
C2652      O2653   1.269       .  A
C2652      C3143   1.498       .  S
O2653     Al2655   1.931       .  S
O2654      C2656   1.271       .  A
O2654     Al2655   1.933       .  S
Al2655     O2663   1.953       .  S
Al2655     O2665   1.947       .  S
Al2655     O2664   1.782       .  S
C2656      O2669   1.259       .  A
C2656      C3243   1.470       .  S
O2657     Al2659   1.981       .  S
O2658      C2671   1.256       .  A
O2658     Al2668   1.899       .  S
Al2659     O2672   1.873       .  S
Al2659     O2669   1.868       .  S
Al2659     O2664   1.767       .  S
O2660     Al2668   1.896       .  S
O2661      C2670   1.253       .  A
O2661     Al2668   1.849       .  S
O2662     Al2668   1.909       .  S
O2663      C2670   1.270       .  A
O2664     Al2668   1.781       .  S
O2665      C2666   1.271       .  A
C2666      C3153   1.535       .  S
C2667      C3080   1.498       .  S
C2670      C3033   1.468       .  S
C2671      O2672   1.259       .  A
C2671      C3050   1.437       .  S
O2673      C2688   1.268       .  A
O2673     Al2681   1.957       .  S
C2674      O2684   1.257       .  A
C2674      O2675   1.270       .  A
C2674      C3010   1.504       .  S
O2675     Al2677   1.952       .  S
O2676      C2678   1.271       .  A
O2676     Al2677   1.930       .  S
Al2677     O2685   1.960       .  S
Al2677     O2687   1.960       .  S
Al2677     O2686   1.779       .  S
C2678      O2691   1.261       .  A
C2678      C3030   1.469   1_554  S
O2679      C2689   1.274       .  A
O2679     Al2681   1.971       .  S
O2680      C2693   1.257       .  A
O2680     Al2690   1.914       .  S
Al2681     O2694   1.872       .  S
Al2681     O2691   1.872       .  S
Al2681     O2686   1.769       .  S
O2682      C2689   1.258       .  A
O2682     Al2690   1.880       .  S
O2683      C2692   1.253       .  A
O2683     Al2690   1.839       .  S
O2684     Al2690   1.901       .  S
O2685      C2692   1.273       .  A
O2686     Al2690   1.779       .  S
O2687      C2688   1.273       .  A
C2688      C3063   1.537       .  S
C2689      C3020   1.485       .  S
C2692      C2990   1.466       .  S
C2693      O2694   1.261       .  A
C2693      C3003   1.454       .  S
O2695      C2710   1.256       .  A
O2695     Al2703   1.869       .  S
C2696      O2706   1.271       .  A
C2696      O2697   1.259       .  A
C2696      C2980   1.497       .  S
O2697     Al2699   1.908       .  S
O2698      C2700   1.260       .  A
O2698     Al2699   1.885       .  S
Al2699     O2707   1.856       .  S
Al2699     O2709   1.884       .  S
Al2699     O2708   1.774       .  S
C2700      O2713   1.278       .  A
O2701      C2711   1.261       .  A
O2701     Al2703   1.881       .  S
O2702      C2715   1.271       .  A
O2702     Al2712   1.940       .  S
Al2703     O2716   1.978       .  S
Al2703     O2713   1.993       .  S
Al2703     O2708   1.770       .  S
O2704      C2711   1.267       .  A
O2704     Al2712   1.916       .  S
O2705      C2714   1.266       .  A
O2705     Al2712   1.943       .  S
O2706     Al2712   1.935       .  S
O2707      C2714   1.251       .  A
O2708     Al2712   1.779       .  S
O2709      C2710   1.255       .  A
C2710      C2970   1.439       .  S
C2711      C2960   1.467       .  S
C2714      C3073   1.456       .  S
C2715      O2716   1.274       .  A
C2715      C2950   1.523       .  S
O2717      C2732   1.272       .  A
O2717     Al2725   1.962       .  S
C2718      O2728   1.258       .  A
C2718      O2719   1.271       .  A
C2718      C2940   1.506       .  S
O2719     Al2721   1.951       .  S
O2720      C2722   1.269   1_554  A
O2720     Al2721   1.933       .  S
Al2721     O2729   1.953       .  S
Al2721     O2731   1.929       .  S
Al2721     O2730   1.784       .  S
C2722      O2735   1.258   1_556  A
C2722      C3043   1.474       .  S
O2723      C2733   1.277       .  A
O2723     Al2725   1.972       .  S
O2724      C2737   1.252       .  A
O2724     Al2734   1.898       .  S
Al2725     O2738   1.890       .  S
Al2725     O2735   1.872       .  S
Al2725     O2730   1.770       .  S
O2726      C2733   1.261       .  A
O2726     Al2734   1.886       .  S
O2727      C2736   1.254       .  A
O2727     Al2734   1.842       .  S
O2728     Al2734   1.899       .  S
O2729      C2736   1.270       .  A
O2730     Al2734   1.776       .  S
O2731      C2732   1.267       .  A
C2732      C3103   1.524       .  S
C2733      C2983   1.490       .  S
C2736      C2930   1.458       .  S
C2737      O2738   1.258       .  A
C2737      C3000   1.447       .  S
O2739      C2754   1.259       .  A
O2739     Al2747   1.875       .  S
C2740      O2750   1.266       .  A
C2740      O2741   1.258       .  A
C2740      C3023   1.478       .  S
Al2743     O2751   1.856       .  S
Al2743     O2753   1.895       .  S
Al2743     O2752   1.781       .  S
C2744      C2943   1.487       .  S
O2745     Al2747   1.867       .  S
O2746      C2759   1.270       .  A
O2746     Al2756   1.950       .  S
Al2747     O2760   1.950       .  S
Al2747     O2752   1.770       .  S
O2748      C2755   1.269       .  A
O2749      C2758   1.265       .  A
O2749     Al2756   1.930       .  S
O2751      C2758   1.253       .  A
O2752     Al2756   1.786       .  S
O2753      C2754   1.254       .  A
C2754      C2973   1.434   1_655  S
C2755      C2920   1.465       .  S
C2758      C3113   1.446       .  S
C2759      O2760   1.268       .  A
C2759      C2910   1.529       .  S
O2761      C2776   1.259       .  A
O2761     Al2769   1.875       .  S
C2762      O2772   1.270       .  A
C2762      O2763   1.255       .  A
C2762      C2903   1.494       .  S
O2763     Al2765   1.892       .  S
O2764      C2766   1.262       .  A
O2764     Al2765   1.892       .  S
Al2765     O2773   1.859       .  S
Al2765     O2775   1.891       .  S
Al2765     O2774   1.783       .  S
C2766      O2779   1.277       .  A
C2766      C2890   1.509       .  S
O2767      C2777   1.263       .  A
O2767     Al2769   1.870       .  S
O2768      C2781   1.265       .  A
O2768     Al2778   1.940       .  S
Al2769     O2782   1.977       .  S
Al2769     O2779   1.994       .  S
Al2769     O2774   1.777       .  S
O2770      C2777   1.270       .  A
O2770     Al2778   1.928       .  S
O2771      C2780   1.267       .  A
O2771     Al2778   1.923       .  S
O2772     Al2778   1.947       .  S
O2773      C2780   1.255       .  A
O2774     Al2778   1.785       .  S
O2775      C2776   1.254       .  A
C2776      C2880   1.438       .  S
C2777      C3163   1.471       .  S
C2780      C2923   1.454       .  S
C2781      O2782   1.272       .  A
C2781      C3270   1.536       .  S
O2783      C2798   1.261       .  A
O2783     Al2791   1.873       .  S
C2784      O2794   1.266       .  A
C2784      O2785   1.255       .  A
C2784      C2860   1.491       .  S
O2785     Al2787   1.891       .  S
O2786      C2788   1.259       .  A
O2786     Al2787   1.883       .  S
Al2787     O2795   1.830       .  S
Al2787     O2797   1.901       .  S
Al2787     O2796   1.779       .  S
C2788      O2801   1.276       .  A
C2788      C2873   1.496       .  S
O2789      C2799   1.260       .  A
O2789     Al2791   1.862       .  S
O2790      C2803   1.268       .  A
O2790     Al2800   1.941       .  S
Al2791     O2804   1.975       .  S
Al2791     O2801   1.982       .  S
Al2791     O2796   1.769       .  S
O2792      C2799   1.269       .  A
O2792     Al2800   1.918       .  S
O2793      C2802   1.271       .  A
O2793     Al2800   1.952       .  S
O2794     Al2800   1.941       .  S
O2795      C2802   1.252       .  A
O2796     Al2800   1.779       .  S
O2797      C2798   1.256       .  A
C2798      C2883   1.437       .  S
C2799      C3193   1.454       .  S
C2802      C2963   1.459       .  S
C2803      O2804   1.271       .  A
C2803      C3223   1.536       .  S
O2805      C2820   1.272       .  A
O2805     Al2813   1.967       .  S
C2806      O2816   1.261       .  A
C2806      O2807   1.270       .  A
C2806      C2893   1.502       .  S
O2807     Al2809   1.942       .  S
O2808      C2810   1.268       .  A
O2808     Al2809   1.928       .  S
Al2809     O2817   1.947       .  S
Al2809     O2819   1.937       .  S
Al2809     O2818   1.782       .  S
C2810      O2823   1.258       .  A
C2810      C2993   1.469       .  S
O2811      C2821   1.275       .  A
O2811     Al2813   1.961       .  S
O2812      C2825   1.255       .  A
O2812     Al2822   1.905       .  S
Al2813     O2826   1.895       .  S
Al2813     O2823   1.869       .  S
Al2813     O2818   1.769       .  S
O2814      C2821   1.264       .  A
O2814     Al2822   1.894       .  S
O2815      C2824   1.254       .  A
O2815     Al2822   1.857       .  S
O2816     Al2822   1.927       .  S
O2817      C2824   1.271       .  A
O2818     Al2822   1.782       .  S
O2819      C2820   1.269       .  A
C2820      C2913   1.530       .  S
C2821      C2863   1.495       .  S
C2824      C3233   1.459       .  S
C2825      O2826   1.261       .  A
C2825      C2850   1.451       .  S
O2827      C2842   1.262       .  A
O2827     Al2835   1.955       .  S
C2828      O2838   1.256       .  A
C2828      O2829   1.266       .  A
C2828      C2870   1.489       .  S
O2830      C2832   1.278       .  A
Al2831     O2839   1.944       .  S
Al2831     O2841   1.940       .  S
Al2831     O2840   1.783       .  S
C2832      C2933   1.471       .  S
O2833     Al2835   1.974       .  S
O2834      C2847   1.266       .  A
O2834     Al2844   1.923   1_565  S
Al2835     O2848   1.871       .  S
Al2835     O2845   1.865       .  S
Al2835     O2840   1.781       .  S
O2836     Al2844   1.891       .  S
O2837      C2846   1.251       .  A
O2837     Al2844   1.830   1_565  S
O2839      C2846   1.270       .  A
O2840     Al2844   1.779   1_565  S
O2841      C2842   1.262       .  A
C2842      C2953   1.522       .  S
C2843      C2900   1.493       .  S
C2846      C3293   1.461       .  S
C2847      O2848   1.269       .  A
C2847      C2853   1.456       .  S
C2849      C2850   1.399       .  A
C2849      C2854   1.395       .  A
C2849      H2856   1.083       .  S
C2850      C2851   1.406       .  A
C2851      C2852   1.384       .  A
C2851     Br2858   1.905       .  S
C2852      C2853   1.394       .  A
C2852      H2857   1.085       .  S
C2853      C2854   1.406       .  A
C2854     Br2855   1.914       .  S
C2859      C2860   1.408       .  A
C2859      C2864   1.401       .  A
C2859      H2866   1.083       .  S
C2860      C2861   1.409       .  A
C2861      C2862   1.407       .  A
C2861     Br2868   1.919       .  S
C2862      C2863   1.413       .  A
C2862      H2867   1.083       .  S
C2863      C2864   1.411       .  A
C2864     Br2865   1.917       .  S
C2869      C2870   1.409       .  A
C2869      C2874   1.405       .  A
C2869      H2876   1.080       .  S
C2870      C2871   1.404       .  A
C2871      C2872   1.406       .  A
C2871     Br2878   1.918       .  S
C2872      C2873   1.414       .  A
C2872      H2877   1.083       .  S
C2873      C2874   1.409       .  A
C2874     Br2875   1.919       .  S
C2879      C2884   1.384       .  A
C2879      H2886   1.084       .  S
C2880      C2881   1.405       .  A
C2881     Br2888   1.918       .  S
C2882      C2883   1.397       .  A
C2882      H2887   1.084       .  S
C2883      C2884   1.402       .  A
C2884     Br2885   1.916       .  S
C2889      C2890   1.414       .  A
C2889      C2894   1.407       .  A
C2889      H2896   1.083       .  S
C2890      C2891   1.414       .  A
C2891      C2892   1.413       .  A
C2891     Br2898   1.918       .  S
C2892      C2893   1.413       .  A
C2892      H2897   1.083       .  S
C2893      C2894   1.409       .  A
C2894     Br2895   1.919       .  S
C2899      C2900   1.407       .  A
C2899      C2904   1.410       .  A
C2900      C2901   1.410       .  A
C2901      C2902   1.406       .  A
C2901     Br2908   1.919       .  S
C2902      C2903   1.409       .  A
C2902      H2907   1.084       .  S
C2903      C2904   1.412       .  A
C2909      C2910   1.414       .  A
C2909      C2914   1.414       .  A
C2909      H2916   1.083       .  S
C2910      C2911   1.420       .  A
C2911      C2912   1.420       .  A
C2911     Br2918   1.919       .  S
C2912      C2913   1.416       .  A
C2912      H2917   1.083       .  S
C2913      C2914   1.421       .  A
C2914     Br2915   1.920       .  S
C2919      C2920   1.403       .  A
C2919      C2924   1.393       .  A
C2920      C2921   1.414       .  A
C2921      C2922   1.389       .  A
C2921     Br2928   1.921       .  S
C2922      C2923   1.396       .  A
C2922      H2927   1.082       .  S
C2923      C2924   1.406       .  A
C2929      C2930   1.404       .  A
C2929      C2934   1.394       .  A
C2929      H2936   1.084       .  S
C2930      C2931   1.404       .  A
C2931      C2932   1.395       .  A
C2931     Br2938   1.919       .  S
C2932      C2933   1.407       .  A
C2932      H2937   1.084       .  S
C2933      C2934   1.412       .  A
C2934     Br2935   1.923       .  S
C2939      C2940   1.419       .  A
C2939      C2944   1.405       .  A
C2939      H2946   1.083       .  S
C2940      C2941   1.414       .  A
C2941      C2942   1.407       .  A
C2942      C2943   1.408       .  A
C2943      C2944   1.402       .  A
C2944     Br2945   1.918       .  S
C2949      C2950   1.414       .  A
C2949      C2954   1.419       .  A
C2949      H2956   1.083       .  S
C2950      C2951   1.417       .  A
C2951      C2952   1.415       .  A
C2951     Br2958   1.919       .  S
C2952      C2953   1.412       .  A
C2952      H2957   1.083       .  S
C2953      C2954   1.418       .  A
C2954     Br2955   1.918       .  S
C2959      C2960   1.407       .  A
C2959      C2964   1.393       .  A
C2959      H2966   1.084       .  S
C2960      C2961   1.404       .  A
C2961      C2962   1.395       .  A
C2961     Br2968   1.919       .  S
C2962      C2963   1.408       .  A
C2962      H2967   1.084       .  S
C2963      C2964   1.403       .  A
C2964     Br2965   1.919       .  S
C2969      C2970   1.398       .  A
C2970      C2971   1.405       .  A
C2971      C2972   1.386       .  A
C2971     Br2978   1.921       .  S
C2972      H2977   1.085       .  S
C2973      C2974   1.397   1_455  A
C2974     Br2975   1.913       .  S
C2979      C2980   1.401       .  A
C2979      C2984   1.402       .  A
C2979      H2986   1.083       .  S
C2980      C2981   1.424       .  A
C2981      C2982   1.405       .  A
C2981     Br2988   1.921       .  S
C2982      C2983   1.400       .  A
C2982      H2987   1.084       .  S
C2983      C2984   1.419       .  A
C2984     Br2985   1.919       .  S
C2989      C2990   1.406       .  A
C2989      C2994   1.392       .  A
C2989      H2996   1.084       .  S
C2990      C2991   1.409       .  A
C2991      C2992   1.398       .  A
C2991     Br2998   1.918       .  S
C2992      C2993   1.405       .  A
C2992      H2997   1.084       .  S
C2993      C2994   1.406       .  A
C2994     Br2995   1.919       .  S
C2999      C3000   1.399       .  A
C2999      C3004   1.395       .  A
C2999      H3006   1.084       .  S
C3000      C3001   1.404       .  A
C3001      C3002   1.383       .  A
C3001     Br3008   1.911       .  S
C3002      C3003   1.396       .  A
C3002      H3007   1.085       .  S
C3003      C3004   1.406       .  A
C3004     Br3005   1.914       .  S
C3009      C3010   1.416       .  A
C3009      C3014   1.407       .  A
C3009      H3016   1.083       .  S
C3010      C3011   1.411       .  A
C3011      C3012   1.409       .  A
C3011     Br3018   1.919       .  S
C3012      C3013   1.414       .  A
C3012      H3017   1.083   1_655  S
C3013      C3014   1.406       .  A
C3019      C3020   1.404       .  A
C3019      C3024   1.401       .  A
C3019      H3026   1.083       .  S
C3020      C3021   1.414       .  A
C3021      C3022   1.405       .  A
C3021     Br3028   1.921       .  S
C3022      C3023   1.404       .  A
C3022      H3027   1.084       .  S
C3023      C3024   1.408       .  A
C3024     Br3025   1.918       .  S
C3029      C3030   1.405       .  A
C3029      C3034   1.396       .  A
C3029      H3036   1.084       .  S
C3030      C3031   1.407       .  A
C3031      C3032   1.396       .  A
C3031     Br3038   1.922       .  S
C3032      C3033   1.407       .  A
C3032      H3037   1.084       .  S
C3033      C3034   1.407       .  A
C3034     Br3035   1.920       .  S
C3039      C3040   1.408       .  A
C3039      C3044   1.395       .  A
C3039      H3046   1.084       .  S
C3040      C3041   1.406       .  A
C3041      C3042   1.401       .  A
C3041     Br3048   1.920       .  S
C3042      C3043   1.408       .  A
C3042      H3047   1.084       .  S
C3043      C3044   1.408       .  A
C3044     Br3045   1.921       .  S
C3049      C3054   1.388       .  A
C3049      H3056   1.085       .  S
C3050      C3051   1.399       .  A
C3051     Br3058   1.919       .  S
C3052      C3053   1.400       .  A
C3053      C3054   1.401       .  A
C3054     Br3055   1.920       .  S
C3059      C3060   1.412       .  A
C3059      C3064   1.420       .  A
C3059      H3066   1.083       .  S
C3060      C3061   1.427       .  A
C3061      C3062   1.421   1_556  A
C3061     Br3068   1.920       .  S
C3062      C3063   1.412       .  A
C3062      H3067   1.083       .  S
C3063      C3064   1.428   1_554  A
C3064     Br3065   1.922       .  S
C3069      C3070   1.403       .  A
C3069      C3074   1.391       .  A
C3069      H3076   1.083       .  S
C3070      C3071   1.421       .  A
C3071      C3072   1.395       .  A
C3071     Br3078   1.924       .  S
C3072      C3073   1.396       .  A
C3072      H3077   1.084       .  S
C3073      C3074   1.404       .  A
C3074     Br3075   1.913       .  S
C3079      C3080   1.402       .  A
C3079      C3084   1.408       .  A
C3079      H3086   1.084       .  S
C3080      C3081   1.420       .  A
C3081      C3082   1.405       .  A
C3081     Br3088   1.920       .  S
C3082      C3083   1.403       .  A
C3082      H3087   1.083       .  S
C3083      C3084   1.424       .  A
C3084     Br3085   1.921       .  S
C3089      C3090   1.403       .  A
C3089      C3094   1.406       .  A
C3089      H3096   1.083       .  S
C3090      C3091   1.425       .  A
C3091      C3092   1.404       .  A
C3091     Br3098   1.922       .  S
C3092      C3093   1.399       .  A
C3092      H3097   1.084       .  S
C3093      C3094   1.421       .  A
C3094     Br3095   1.919       .  S
C3099      H3106   1.083       .  S
C3100      C3101   1.422       .  A
C3101      C3102   1.415       .  A
C3101     Br3108   1.920       .  S
C3102      C3103   1.412   1_556  A
C3102      H3107   1.083       .  S
C3103      C3104   1.421       .  A
C3109      C3110   1.410   1_554  A
C3109      C3114   1.395       .  A
C3109      H3116   1.083       .  S
C3110      C3111   1.417   1_556  A
C3111      C3112   1.387       .  A
C3111     Br3118   1.927   1_564  S
C3112      C3113   1.396       .  A
C3112      H3117   1.084   1_565  S
C3113      C3114   1.398       .  A
C3114     Br3115   1.916       .  S
C3119      C3120   1.398       .  A
C3119      C3124   1.390       .  A
C3119      H3126   1.084       .  S
C3120      C3121   1.404       .  A
C3121      C3122   1.382       .  A
C3121     Br3128   1.910       .  S
C3122      C3123   1.392       .  A
C3122      H3127   1.084       .  S
C3123      C3124   1.405       .  A
C3124     Br3125   1.916       .  S
C3129      C3134   1.405       .  A
C3129      H3136   1.081       .  S
C3130      C3131   1.412       .  A
C3131     Br3138   1.921       .  S
C3132      C3133   1.413       .  A
C3133      C3134   1.420       .  A
C3134     Br3135   1.922       .  S
C3139      C3140   1.402       .  A
C3139      C3144   1.408       .  A
C3139      H3146   1.083       .  S
C3140      C3141   1.420       .  A
C3141      C3142   1.401       .  A
C3141     Br3148   1.920       .  S
C3142      C3143   1.401       .  A
C3142      H3147   1.083       .  S
C3143      C3144   1.424       .  A
C3144     Br3145   1.923       .  S
C3149      C3150   1.413       .  A
C3149      C3154   1.419       .  A
C3149      H3156   1.083       .  S
C3150      C3151   1.425       .  A
C3151      C3152   1.420       .  A
C3151     Br3158   1.920       .  S
C3152      C3153   1.413       .  A
C3152      H3157   1.083       .  S
C3153      C3154   1.425       .  A
C3154     Br3155   1.921       .  S
C3159      C3160   1.397       .  A
C3159      C3164   1.394       .  A
C3159      H3166   1.084       .  S
C3160      C3161   1.407       .  A
C3161      C3162   1.393       .  A
C3161     Br3168   1.920       .  S
C3162      C3163   1.403       .  A
C3162      H3167   1.084       .  S
C3163      C3164   1.416       .  A
C3164     Br3165   1.920       .  S
C3169      C3170   1.408       .  A
C3169      C3174   1.394       .  A
C3169      H3176   1.084       .  S
C3171      C3172   1.392       .  A
C3171     Br3178   1.921       .  S
C3172      H3177   1.084       .  S
C3173      C3174   1.407       .  A
C3174     Br3175   1.921       .  S
C3179      C3180   1.409       .  A
C3179      C3184   1.414       .  A
C3179      H3186   1.083       .  S
C3180      C3181   1.422       .  A
C3181      C3182   1.416       .  A
C3181     Br3188   1.921       .  S
C3182      C3183   1.410       .  A
C3182      H3187   1.083       .  S
C3183      C3184   1.424       .  A
C3184     Br3185   1.921       .  S
C3189      C3190   1.407       .  A
C3189      C3194   1.388       .  A
C3189      H3196   1.085       .  S
C3190      C3191   1.405       .  A
C3191      C3192   1.393       .  A
C3191     Br3198   1.920       .  S
C3192      C3193   1.404       .  A
C3192      H3197   1.084       .  S
C3193      C3194   1.402       .  A
C3194     Br3195   1.921       .  S
C3199      C3200   1.404       .  A
C3199      C3204   1.398       .  A
C3199      H3206   1.083       .  S
C3200      C3201   1.418       .  A
C3201      C3202   1.391       .  A
C3201     Br3208   1.920       .  S
C3202      C3203   1.393       .  A
C3202      H3207   1.085       .  S
C3203      C3204   1.408       .  A
C3204     Br3205   1.918       .  S
C3209      C3210   1.399       .  A
C3209      C3214   1.395       .  A
C3209      H3216   1.081       .  S
C3210      C3211   1.405       .  A
C3211      C3212   1.382       .  A
C3211     Br3218   1.910       .  S
C3212      C3213   1.396       .  A
C3212      H3217   1.085       .  S
C3213      C3214   1.406       .  A
C3214     Br3215   1.914       .  S
C3219      C3220   1.414   1_455  A
C3219      H3226   1.083       .  S
C3221      C3222   1.422       .  A
C3221     Br3228   1.919       .  S
C3222      C3223   1.416       .  A
C3222      H3227   1.083       .  S
C3223      C3224   1.423       .  A
C3229      C3230   1.405       .  A
C3229      C3234   1.395       .  A
C3229      H3236   1.084       .  S
C3230      C3231   1.414       .  A
C3231      C3232   1.394       .  A
C3231     Br3238   1.918       .  S
C3232      C3233   1.398       .  A
C3232      H3237   1.084       .  S
C3233      C3234   1.408       .  A
C3234     Br3235   1.920       .  S
C3239      C3240   1.406       .  A
C3239      C3244   1.395       .  A
C3239      H3246   1.082       .  S
C3240      C3241   1.405       .  A
C3241      C3242   1.396       .  A
C3241     Br3248   1.909       .  S
C3242      C3243   1.405       .  A
C3242      H3247   1.084       .  S
C3243      C3244   1.408       .  A
C3244     Br3245   1.922       .  S
C3249      C3250   1.410       .  A
C3249      C3254   1.401       .  A
C3249      H3256   1.084       .  S
C3250      C3251   1.410       .  A
C3251      C3252   1.405       .  A
C3251     Br3258   1.921       .  S
C3252      C3253   1.405       .  A
C3252      H3257   1.081       .  S
C3253      C3254   1.405       .  A
C3254     Br3255   1.918       .  S
C3259      C3260   1.407       .  A
C3259      C3264   1.407       .  A
C3259      H3266   1.084       .  S
C3260      C3261   1.403       .  A
C3261      C3262   1.407       .  A
C3261     Br3268   1.918       .  S
C3262      C3263   1.418       .  A
C3262      H3267   1.083       .  S
C3263      C3264   1.415       .  A
C3264     Br3265   1.920       .  S
C3269      C3270   1.413   1_455  A
C3269      H3276   1.083       .  S
C3271      C3272   1.420       .  A
C3271     Br3278   1.920       .  S
C3272      C3273   1.413       .  A
C3272      H3277   1.083       .  S
C3273      C3274   1.423       .  A
C3279      C3280   1.406       .  A
C3279      C3284   1.396       .  A
C3279      H3286   1.084       .  S
C3280      C3281   1.408       .  A
C3281      C3282   1.392       .  A
C3281     Br3288   1.920       .  S
C3282      C3283   1.404       .  A
C3283      C3284   1.405       .  A
C3284     Br3285   1.921       .  S
C3289      C3290   1.400       .  A
C3289      C3294   1.383   1_565  A
C3290      C3291   1.420       .  A
C3291      C3292   1.405       .  A
C3291     Br3298   1.920       .  S
C3292      C3293   1.399       .  A
C3292      H3297   1.084       .  S
C3293      C3294   1.409   1_565  A
C3299      C3300   1.399       .  A
C3299      H3306   1.085       .  S
C3301      C3302   1.386       .  A
C3301     Br3308   1.917       .  S
C3302      C3303   1.399       .  A
C3302      H3307   1.084       .  S
C3303      C3304   1.401       .  A
C3304     Br3305   1.920       .  S
C3309      C3314   1.402       .  A
C3309      H3316   1.084       .  S
C3310      C3311   1.418       .  A
C3311      C3312   1.399       .  A
C3311     Br3318   1.919       .  S
C3312      H3317   1.084       .  S
C3313      C3314   1.420   1_565  A
C3314     Br3315   1.921       .  S
C3319      C3320   1.414       .  A
C3319      C3324   1.404       .  A
C3319      H3326   1.083       .  S
C3320      C3321   1.405       .  A
C3321      C3322   1.407       .  A
C3321     Br3328   1.918       .  S
C3322      C3323   1.415       .  A
C3322      H3327   1.084       .  S
C3323      C3324   1.406       .  A
C3324     Br3325   1.919       .  S
