geometry optimzed in LAMMPS
_audit_creation_date              2020-12-01 
_audit_creation_method            'lammps2cif' 
_symmetry_space_group_name_H-M    'P1' 
_symmetry_Int_Tables_number       1 
_symmetry_cell_setting            triclinic 
loop_ 
_symmetry_equiv_pos_as_xyz 
  x,y,z 
_cell_length_a                    55.14625373 
_cell_length_b                    55.28845044704801 
_cell_length_c                    26.990034420827172 
_cell_angle_alpha                 89.57925227127849 
_cell_angle_beta                  90.54365117619739 
_cell_angle_gamma                 120.83270451492183 
loop_ 
_atom_site_label 
_atom_site_type_symbol 
_atom_site_fract_x 
_atom_site_fract_y 
_atom_site_fract_z 
_atom_site_charge 
O1          O  0.39761871  0.12844664  0.29517503    -0.82300
C2          C  0.43842494  0.11397798  0.11559994     0.97100
O3          O  0.44266523  0.10623667  0.15736464    -0.71400
O4          O  0.46407890  0.14863155  0.21895847    -0.75000
Al5        Al  0.43308491  0.11118100  0.22287359     1.49000
C6          C  0.46605380  0.16677463  0.24918200     0.92300
O7          O  0.41597744  0.17043467  0.17813966    -0.81200
O8          O  0.35232562  0.09107932  0.19196522    -0.74800
Al9        Al  0.40649264  0.14795052  0.23547798     1.90100
O10         O  0.38458280  0.13705956  0.12970704    -0.73800
O11         O  0.38068923  0.06695581  0.16293122    -0.73700
O12         O  0.41685085  0.11602315  0.10818442    -0.79300
O13         O  0.40570907  0.07297158  0.22998193    -0.77600
O14         O  0.40830215  0.12082697  0.20374793    -1.13700
O15         O  0.42853997  0.11453199  0.29246952    -0.72900
C16         C  0.41263512  0.12036532  0.31651994     0.97800
C17         C  0.40089366  0.16293592  0.13958997     0.94200
Al18       Al  0.38545287  0.10401954  0.15211206     1.55600
O19         O  0.44498123  0.16933000  0.25617793    -0.77500
C20         C  0.38716134  0.05685148  0.19951333     0.98400
C21         C  0.34752962  0.10693350  0.21846083     0.93300
O22         O  0.36672135  0.13214204  0.22638496    -0.82800
O23         O  0.27395250  0.38735115  0.72100662    -0.82300
C24         C  0.33526417  0.40308092  0.89518711     0.97100
O25         O  0.34686636  0.41296073  0.85377021    -0.71400
O26         O  0.32548094  0.37084592  0.79217604    -0.75000
Al27       Al  0.33009370  0.40717371  0.78903157     1.49000
C28         C  0.30874987  0.35190900  0.76298458     0.92300
O29         O  0.25615215  0.34442212  0.83741548    -0.81200
O30         O  0.26795427  0.42234574  0.82418497    -0.74800
Al31       Al  0.26613602  0.36710534  0.78012550     1.90100
O32         O  0.25691481  0.37670692  0.88572510    -0.73800
O33         O  0.32213562  0.44926038  0.85233655    -0.73700
O34         O  0.31140689  0.40005428  0.90470530    -0.79300
O35         O  0.33908210  0.44455630  0.78264769    -0.77600
O36         O  0.29566919  0.39533928  0.81056826    -1.13700
O37         O  0.31963740  0.40343904  0.71984673    -0.72900
C38         C  0.29681054  0.39742942  0.69775252     0.97800
C39         C  0.24807277  0.35105209  0.87578688     0.94200
Al40       Al  0.29014087  0.41105449  0.86315572     1.55600
O41         O  0.28456224  0.34832118  0.75571719    -0.77500
C42         C  0.33771249  0.46011605  0.81472928     0.98400
C43         C  0.24667584  0.40515074  0.79856947     0.93300
O44         O  0.24064432  0.37990860  0.79415925    -0.82800
O45         O  0.39045537  0.28778726  0.63442902    -0.82300
C46         C  0.39104525  0.34228846  0.45692662     0.97100
O47         O  0.39963970  0.35366582  0.49875413    -0.71400
O48         O  0.36191195  0.33069488  0.56884476    -0.75000
Al49       Al  0.39983408  0.33955638  0.56279345     1.49000
C50         C  0.34578888  0.31309012  0.60060695     0.92300
O51         O  0.33944183  0.25931752  0.52722364    -0.81200
O52         O  0.42020537  0.28135970  0.52113416    -0.74800
Al53       Al  0.36624530  0.27507146  0.57918588     1.90100
O54         O  0.36976178  0.26517989  0.46950217    -0.73800
O55         O  0.44109366  0.33372209  0.49222921    -0.73700
O56         O  0.38884809  0.31883598  0.44757695    -0.79300
O57         O  0.43852256  0.35281779  0.56103525    -0.77600
O58         O  0.38998522  0.30509707  0.54289045    -1.13700
O59         O  0.40206708  0.33230791  0.63065105    -0.72900
C60         C  0.39967149  0.31149373  0.65423129     0.97800
C61         C  0.34461330  0.25275852  0.48563216     0.94200
Al62       Al  0.40381056  0.30017515  0.48689629     1.55600
O63         O  0.34519358  0.29024667  0.60655136    -0.77500
C64         C  0.45302613  0.35067284  0.52777059     0.98400
C65         C  0.40714985  0.26068816  0.55015634     0.93300
O66         O  0.38241128  0.25292946  0.56364970    -0.82800
O67         O  0.11537445  0.39746380  0.78675448    -0.82300
C68         C  0.06210248  0.40241431  0.61258246     0.97100
O69         O  0.05856654  0.40933342  0.65519497    -0.71400
O70         O  0.04168138  0.37194243  0.72666719    -0.75000
Al71       Al  0.07316981  0.40894886  0.71908455     1.49000
C72         C  0.04236161  0.35630145  0.76003282     0.92300
O73         O  0.08499950  0.34586886  0.68208302    -0.81200
O74         O  0.15154612  0.42442300  0.67747799    -0.74800
Al75       Al  0.09999840  0.37249832  0.73348551     1.90100
O76         O  0.11223330  0.37549437  0.62397988    -0.73800
O77         O  0.12439787  0.45030706  0.65088770    -0.73700
O78         O  0.08346370  0.40055437  0.60301209    -0.79300
O79         O  0.10011272  0.44680151  0.71673915    -0.77600
O80         O  0.09625296  0.39774572  0.69808514    -1.13700
O81         O  0.08387754  0.41058881  0.78707574    -0.72900
C82         C  0.10209838  0.40694946  0.80934517     0.97800
C83         C  0.09677424  0.35038074  0.64030009     0.94200
Al84       Al  0.11629314  0.41162681  0.64292897     1.55600
O85         O  0.06398628  0.35438494  0.76488921    -0.77500
C86         C  0.11832867  0.46169325  0.68541009     0.98400
C87         C  0.15699957  0.40849286  0.70272001     0.93300
O88         O  0.13755403  0.38423427  0.71459615    -0.82800
O89         O  0.22331077  0.12483505  0.21142653    -0.82300
C90         C  0.16894090  0.11670681  0.38958282     0.97100
O91         O  0.15627425  0.10764029  0.34869614    -0.71400
O92         O  0.18002468  0.14926206  0.28538723    -0.75000
Al93       Al  0.17122893  0.11151294  0.28356936     1.49000
C94         C  0.19665298  0.16669379  0.25406167     0.92300
O95         O  0.25077880  0.17046542  0.32398569    -0.81200
O96         O  0.23079391  0.09060961  0.31925664    -0.74800
Al97       Al  0.23560926  0.14633280  0.26906641     1.90100
O98         O  0.24536635  0.13805795  0.37801179    -0.73800
O99         O  0.17746879  0.06723626  0.34576125    -0.73700
O100        O  0.19180461  0.11737065  0.39835888    -0.79300
O101        O  0.15872159  0.07320182  0.27842656    -0.77600
O102        O  0.20577316  0.12061609  0.30302090    -1.13700
O103        O  0.17890092  0.11364416  0.21415440    -0.72900
C104        C  0.20014896  0.11750195  0.19015359     0.97800
C105        C  0.25715791  0.16370558  0.36466387     0.94200
Al106      Al  0.21080020  0.10445442  0.35638141     1.55600
O107        O  0.21967844  0.16794489  0.24580865    -0.77500
C108        C  0.16077359  0.05710668  0.30896455     0.98400
C109        C  0.25177638  0.10557563  0.29182833     0.93300
O110        O  0.25845684  0.13036604  0.28062507    -0.82800
O111        O  0.22197182  0.12126495  0.95842230    -0.82300
C112        C  0.16848787  0.06759786  0.78134826     0.97100
O113        O  0.15743618  0.06075546  0.82371638    -0.71400
O114        O  0.18173890  0.04774352  0.89403662    -0.75000
Al115      Al  0.17061234  0.07518033  0.88850644     1.49000
C116        C  0.19944846  0.05065077  0.92667792     0.92300
O117        O  0.24926384  0.09907676  0.85108320    -0.81200
O118        O  0.22882760  0.15880073  0.85132963    -0.74800
Al119      Al  0.23483588  0.11002448  0.90417255     1.90100
O120        O  0.24329812  0.12508114  0.79501809    -0.73800
O121        O  0.17546099  0.12698823  0.82671710    -0.73700
O122        O  0.18958433  0.09172986  0.77329726    -0.79300
O123        O  0.15443041  0.09772081  0.88775269    -0.77600
O124        O  0.20439987  0.10284200  0.86907407    -1.13700
O125        O  0.17819474  0.08518737  0.95707095    -0.72900
C126        C  0.19854099  0.10567248  0.97964385     0.97800
C127        C  0.25507303  0.11147877  0.80944734     0.94200
Al128      Al  0.20869248  0.12380255  0.81563728     1.55600
O129        O  0.22077032  0.07439434  0.93405031    -0.77500
C130        C  0.15708007  0.11741710  0.86066268     0.98400
C131        C  0.25146968  0.16615851  0.87448657     0.93300
O132        O  0.25781396  0.14823997  0.88713854    -0.82800
O133        O  0.11056520  0.22950325  0.38538126    -0.82300
C134        C  0.05647806  0.16920313  0.55819803     0.97100
O135        O  0.05372155  0.15864022  0.51574961    -0.71400
O136        O  0.03737849  0.18141405  0.44747624    -0.75000
Al137      Al  0.06807027  0.17506557  0.45247150     1.49000
C138        C  0.03833494  0.19906696  0.41655507     0.92300
O139        O  0.08396098  0.25175424  0.49318560    -0.81200
O140        O  0.14811613  0.23813333  0.50088927    -0.74800
Al141      Al  0.09714273  0.23938792  0.44093725     1.90100
O142        O  0.10905265  0.24709330  0.55238784    -0.73800
O143        O  0.11863238  0.18367739  0.52069643    -0.73700
O144        O  0.07810923  0.19251873  0.56883300    -0.79300
O145        O  0.09512772  0.16454398  0.45215139    -0.77600
O146        O  0.09227413  0.20955981  0.47506207    -1.13700
O147        O  0.07755057  0.18475440  0.38471596    -0.72900
C148        C  0.09591977  0.20656049  0.36237567     0.97800
C149        C  0.09516017  0.25809347  0.53570597     0.94200
Al150      Al  0.11168972  0.21463994  0.53135025     1.55600
O151        O  0.06063529  0.22247129  0.41146613    -0.77500
C152        C  0.11395975  0.16841629  0.48277948     0.98400
C153        C  0.15432632  0.26036181  0.47750372     0.93300
O154        O  0.13512183  0.26384527  0.45981160    -0.82800
O155        O  0.27262178  0.40239703  0.46480431    -0.82300
C156        C  0.33260595  0.44877624  0.28947939     0.97100
O157        O  0.34250841  0.45525675  0.33294849    -0.71400
O158        O  0.32220771  0.47348133  0.40069126    -0.75000
Al159      Al  0.32828919  0.44241724  0.39707942     1.49000
C160        C  0.30354575  0.47258929  0.42831128     0.92300
O161        O  0.25373283  0.42759681  0.34808024    -0.81200
O162        O  0.26479573  0.36143943  0.36723749    -0.74800
Al163      Al  0.26380869  0.41488687  0.40546749     1.90100
O164        O  0.25530759  0.39644119  0.29967564    -0.73800
O165        O  0.31798970  0.38819983  0.33791090    -0.73700
O166        O  0.30998819  0.42565891  0.28042882    -0.79300
O167        O  0.34097114  0.41665706  0.39876200    -0.77600
O168        O  0.29376854  0.41775194  0.37551078    -1.13700
O169        O  0.31861083  0.43273000  0.46481572    -0.72900
C170        C  0.29632531  0.41493250  0.48708025     0.97800
C171        C  0.24650444  0.41325034  0.30860931     0.94200
Al172      Al  0.28756323  0.39469721  0.32491738     1.55600
O173        O  0.28030523  0.45048975  0.43228530    -0.77500
C174        C  0.33661706  0.39660031  0.37128248     0.98400
C175        C  0.24370357  0.35822333  0.39139359     0.93300
O176        O  0.23788957  0.37723712  0.38856324    -0.82800
O177        O  0.10813154  0.23096367  0.12555215    -0.82300
C178        C  0.10461831  0.17288752  0.95326296     0.97100
O179        O  0.09546530  0.16160213  0.99524461    -0.71400
O180        O  0.13337092  0.18359696  0.06643355    -0.75000
Al181      Al  0.09607706  0.17690133  0.05914874     1.49000
C182        C  0.15050783  0.20160722  0.09664225     0.92300
O183        O  0.15849677  0.25356189  0.01938674    -0.81200
O184        O  0.07888423  0.23750911  0.01407387    -0.74800
Al185      Al  0.13226211  0.24118001  0.07124459     1.90100
O186        O  0.12843493  0.25072238  0.96206801    -0.73800
O187        O  0.05524363  0.18421875  0.98694898    -0.73700
O188        O  0.10659668  0.19621854  0.94259088    -0.79300
O189        O  0.05781958  0.16529236  0.05667246    -0.77600
O190        O  0.10713691  0.21130976  0.03682765    -1.13700
O191        O  0.09500752  0.18617015  0.12727246    -0.72900
C192        C  0.09921166  0.20825195  0.14908944     0.97800
C193        C  0.15359437  0.26105370  0.97814698     0.94200
Al194      Al  0.09334645  0.21665336  0.98049172     1.55600
O195        O  0.15149920  0.22462316  0.10180375    -0.77500
C196        C  0.04332367  0.16762826  0.02302802     0.98400
C197        C  0.09375915  0.25868070  0.04131296     0.93300
O198        O  0.11875759  0.26549736  0.05204474    -0.82800
O199        O  0.10849885  0.39221089  0.04424782    -0.82300
C200        C  0.10941732  0.44927957  0.21661639     0.97100
O201        O  0.10159987  0.45178524  0.17376687    -0.71400
O202        O  0.14011855  0.46666688  0.10481073    -0.75000
Al203      Al  0.10172741  0.43699391  0.11073233     1.49000
C204        C  0.15595331  0.46472569  0.07369595     0.92300
O205        O  0.16110066  0.41903665  0.14885468    -0.81200
O206        O  0.08043739  0.35732357  0.15667563    -0.74800
Al207      Al  0.13392077  0.40575425  0.09781156     1.90100
O208        O  0.13113456  0.39416125  0.20822664    -0.73800
O209        O  0.05945793  0.38899606  0.18210264    -0.73700
O210        O  0.11106993  0.42783719  0.22767612    -0.79300
O211        O  0.06292344  0.41106361  0.11244152    -0.77600
O212        O  0.11072426  0.41227563  0.13300771    -1.13700
O213        O  0.10011451  0.42705847  0.04290088    -0.72900
C214        C  0.10146191  0.40763186  0.02116235     0.97800
C215        C  0.15614382  0.40809010  0.19142481     0.94200
Al216      Al  0.09665074  0.39355907  0.18947742     1.55600
O217        O  0.15450233  0.44157406  0.06714458    -0.77500
C218        C  0.04807594  0.39463042  0.14643970     0.98400
C219        C  0.09412639  0.34997866  0.12957853     0.93300
O220        O  0.11895664  0.36772710  0.11716916    -0.82800
O221        O  0.39195381  0.12725923  0.54751712    -0.82300
C222        C  0.38807480  0.06941661  0.72403799     0.97100
O223        O  0.39367354  0.06521715  0.68100645    -0.71400
O224        O  0.35561482  0.05335768  0.61223909    -0.75000
Al225      Al  0.39471291  0.08041913  0.61786331     1.49000
C226        C  0.34139344  0.05653275  0.57884955     0.92300
O227        O  0.33986361  0.10441413  0.65345978    -0.81200
O228        O  0.42177580  0.16225378  0.66131690    -0.74800
Al229      Al  0.36673778  0.11571387  0.60203948     1.90100
O230        O  0.37079646  0.12759491  0.71319614    -0.73800
O231        O  0.44054693  0.12865261  0.68597163    -0.73700
O232        O  0.38878859  0.09208660  0.73433160    -0.79300
O233        O  0.43377280  0.10346696  0.61950357    -0.77600
O234        O  0.38867842  0.10732458  0.63846332    -1.13700
O235        O  0.39753164  0.09064667  0.55014661    -0.72900
C236        C  0.39879786  0.11109985  0.52681043     0.97800
C237        C  0.34560682  0.11519678  0.69624394     0.94200
Al238      Al  0.40419719  0.12609446  0.69449311     1.55600
O239        O  0.34421118  0.08024731  0.57164589    -0.77500
C240        C  0.45020078  0.12109828  0.65067266     0.98400
C241        C  0.40896672  0.17065485  0.63372320     0.93300
O242        O  0.38393051  0.15390576  0.62061132    -0.82800
O243        O  0.39844378  0.29003389  0.88080572    -0.82300
C244        C  0.44063470  0.34107707  0.06370239     0.97100
O245        O  0.44593276  0.35380972  0.02262287    -0.71400
O246        O  0.46744086  0.33592462  0.95657696    -0.75000
Al247      Al  0.43608887  0.34139525  0.95637196     1.49000
C248        C  0.46882430  0.32008402  0.92491857     0.92300
O249        O  0.42047792  0.26424263  0.99141208    -0.81200
O250        O  0.35502466  0.27642165  0.98088664    -0.74800
Al251      Al  0.40954550  0.27800823  0.93697443     1.90100
O252        O  0.38896835  0.26369475  0.04188743    -0.73800
O253        O  0.38151274  0.32869398  0.01443263    -0.73700
O254        O  0.41853548  0.31719298  0.06934065    -0.79300
O255        O  0.40901211  0.35208588  0.95253367    -0.77600
O256        O  0.41134099  0.30583669  0.97245312    -1.13700
O257        O  0.43042631  0.33529571  0.88666669    -0.72900
C258        C  0.41224066  0.31433262  0.86208831     0.97800
C259        C  0.40535237  0.25485859  0.02963775     0.94200
Al260      Al  0.38786623  0.29727641  0.02307305     1.55600
O261        O  0.44725163  0.29696181  0.91450184    -0.77500
C262        C  0.38902315  0.34717207  0.98065048     0.98400
C263        C  0.35111921  0.25636705  0.95314760     0.93300
O264        O  0.37074057  0.25139845  0.94743028    -0.82800
C265        C  0.01697730  0.38159728  0.14219671    -0.00600
C266        C  0.99920127  0.35244857  0.14948278    -0.12500
C267        C  0.47244741  0.33909335  0.13023924     0.01600
C268        C  0.46266598  0.35441426  0.10292230    -0.00700
C269        C  0.47921782  0.38393453  0.10264533    -0.12500
C270        C  0.00530980  0.39707996  0.12195167     0.01500
H271        H  0.00775556  0.34039780  0.16588130     0.14500
H272        H  0.47171519  0.39604469  0.08290692     0.14500
C273        C  0.02189499  0.42734811  0.11646003     0.36100
C274        C  0.45575524  0.30882267  0.13445441     0.36000
N275        N  0.03524007  0.45156681  0.11182651    -0.44200
N276        N  0.44232463  0.28457684  0.13842448    -0.44200
C277        C  0.08227811  0.32099762  0.11050040    -0.00600
C278        C  0.07783814  0.31685076  0.05896530    -0.12500
C279        C  0.07758210  0.29407074  0.03547952     0.01600
C280        C  0.08281355  0.27566216  0.06361051    -0.00700
C281        C  0.08388804  0.27798599  0.11559601    -0.12500
C282        C  0.08342956  0.30028183  0.13916024     0.01500
H283        H  0.07677762  0.33264685  0.03653631     0.14500
H284        H  0.08712023  0.26345781  0.13774800     0.14500
C285        C  0.08703129  0.30303530  0.19225075     0.36100
C286        C  0.07418122  0.29135694  0.98237250     0.36000
N287        N  0.08993356  0.30523295  0.23481930    -0.44200
N288        N  0.07134794  0.28917263  0.93978196    -0.44200
C289        C  0.17973379  0.40984498  0.22006590    -0.00600
C290        C  0.19874855  0.43496526  0.24416458    -0.12500
C291        C  0.22133329  0.43706203  0.27201852     0.01600
C292        C  0.22526478  0.41371883  0.27523158    -0.00700
C293        C  0.20706218  0.38920604  0.24836486    -0.12500
C294        C  0.18452918  0.38719699  0.22079461     0.01500
H295        H  0.19592267  0.45293836  0.24120097     0.14500
H296        H  0.21001738  0.37126793  0.24968738     0.14500
C297        C  0.16729804  0.36219001  0.19177380     0.36100
C298        C  0.24044828  0.46356394  0.29574468     0.36000
N299        N  0.15380982  0.34243821  0.16767257    -0.44200
N300        N  0.25579121  0.48484305  0.31461410    -0.44200
C301        C  0.30987223  0.49438928  0.46506620    -0.00600
C302        C  0.30342837  0.48532900  0.51465869    -0.12500
C303        C  0.31263435  0.00621322  0.55127033     0.01600
C304        C  0.32719699  0.03507261  0.54029443    -0.00700
C305        C  0.33297912  0.04407034  0.49038862    -0.12500
C306        C  0.32635127  0.02472955  0.45201344     0.01500
H307        H  0.29348099  0.46310789  0.52364135     0.14500
H308        H  0.34452263  0.06637018  0.48162702     0.14500
C309        C  0.33468385  0.03465717  0.40189763     0.36100
C310        C  0.30582897  0.49429819  0.60362207     0.36000
N311        N  0.34141734  0.04229627  0.36159998    -0.44200
N312        N  0.30160214  0.48606289  0.64402418    -0.44200
C313        C  0.22544973  0.33345056  0.42370270    -0.00600
C314        C  0.22521382  0.30796593  0.41960245    -0.12500
C315        C  0.20463742  0.28351817  0.44454743     0.01600
C316        C  0.18349284  0.28439338  0.47218039    -0.00700
C317        C  0.18670589  0.31051842  0.48255607    -0.12500
C318        C  0.20721711  0.33484485  0.45927471     0.01500
H319        H  0.24039892  0.30688313  0.39594061     0.14500
H320        H  0.17128603  0.31152421  0.50589052     0.14500
C321        C  0.20754942  0.36033303  0.47229452     0.36100
C322        C  0.20657989  0.25855602  0.44326333     0.36000
N323        N  0.20711249  0.38021449  0.48395626    -0.44200
N324        N  0.20941105  0.23921664  0.44342518    -0.44200
C325        C  0.09795283  0.20607607  0.30798952    -0.00600
C326        C  0.11158059  0.23197698  0.28301011    -0.12500
C327        C  0.11126133  0.23333409  0.23156867     0.01600
C328        C  0.09685029  0.20818564  0.20353544    -0.00700
C329        C  0.08327145  0.18221729  0.22850227    -0.12500
C330        C  0.08385484  0.18089072  0.28012510     0.01500
H331        H  0.12232516  0.25151467  0.30373560     0.14500
H332        H  0.07263150  0.16274735  0.20758808     0.14500
C333        C  0.07026730  0.15333418  0.30294937     0.36100
C334        C  0.12702951  0.26098337  0.20937006     0.36000
N335        N  0.05942842  0.13122648  0.32111793    -0.44200
N336        N  0.13987407  0.28320501  0.19194431    -0.44200
C337        C  0.48098670  0.13319630  0.64249332    -0.00600
C338        C  0.48935474  0.11608814  0.61870189    -0.12500
C339        C  0.01345719  0.12564820  0.59197018     0.01600
C340        C  0.03260660  0.15499914  0.59367841    -0.00700
C341        C  0.02593086  0.17159131  0.62344139    -0.12500
C342        C  0.50098316  0.16220300  0.64780922     0.01500
H343        H  0.47450762  0.09364026  0.61534964     0.14500
H344        H  0.04041261  0.19416186  0.62520063     0.14500
C345        C  0.49397377  0.18088783  0.67244475     0.36100
C346        C  0.01952133  0.10706156  0.56444417     0.36000
N347        N  0.48841749  0.19590920  0.69223692    -0.44200
N348        N  0.02433231  0.09218780  0.54224453    -0.44200
C349        C  0.27259493  0.19559610  0.88507195    -0.00600
C350        C  0.29772615  0.20619641  0.85895382    -0.12500
C351        C  0.32333149  0.22641798  0.87982354     0.01600
C352        C  0.32394225  0.23804169  0.92696795    -0.00700
C353        C  0.29818621  0.22978815  0.95049398    -0.12500
C354        C  0.27260550  0.20810530  0.93043035     0.01500
H355        H  0.29776514  0.19610906  0.82458689     0.14500
H356        H  0.29825705  0.23840267  0.98648766     0.14500
C357        C  0.24710338  0.19696836  0.95910168     0.36100
C358        C  0.34842919  0.23289394  0.85267565     0.36000
N359        N  0.22653929  0.18778042  0.98183677    -0.44200
N360        N  0.36787864  0.23712134  0.82978792    -0.44200
C361        C  0.27736390  0.11171571  0.77892459    -0.00600
C362        C  0.29980424  0.13767796  0.76249028    -0.12500
C363        C  0.32248792  0.13921799  0.73658649     0.01600
C364        C  0.32266292  0.11439339  0.72562856    -0.00700
C365        C  0.29973105  0.08831735  0.74052905    -0.12500
C366        C  0.27752652  0.08685228  0.76810768     0.01500
H367        H  0.29988999  0.15689008  0.77080297     0.14500
H368        H  0.29935167  0.06909372  0.73110730     0.14500
C369        C  0.25489721  0.05963258  0.78417690     0.36100
C370        C  0.34472948  0.16643069  0.71988193     0.36000
N371        N  0.23674910  0.03789993  0.79734599    -0.44200
N372        N  0.36227701  0.18835458  0.70632503    -0.44200
C373        C  0.13951438  0.13025381  0.87262346    -0.00600
C374        C  0.15043627  0.15923262  0.86480690    -0.12500
C375        C  0.13807559  0.17336384  0.88714461     0.01600
C376        C  0.11430027  0.15852017  0.91838747    -0.00700
C377        C  0.10201110  0.12917817  0.92236879    -0.12500
C378        C  0.11406172  0.11504806  0.89978771     0.01500
H379        H  0.16980638  0.17130924  0.84403492     0.14500
H380        H  0.08342186  0.11724647  0.94515667     0.14500
C381        C  0.10018782  0.08490940  0.90679596     0.36100
C382        C  0.15154739  0.20340656  0.88018330     0.36000
N383        N  0.08909663  0.06078770  0.91257466    -0.44200
N384        N  0.16234412  0.22747235  0.87411335    -0.44200
C385        C  0.19265714  0.02860930  0.96410713    -0.00600
C386        C  0.19474556  0.03648493  0.01425459    -0.12500
C387        C  0.18649926  0.51597335  0.05016736     0.01600
C388        C  0.17185771  0.48736162  0.03738130    -0.00700
C389        C  0.17221102  0.98009608  0.99011599    -0.12500
C390        C  0.18152290  0.00018028  0.95210199     0.01500
H391        H  0.20308399  0.05839265  0.02378562     0.14500
H392        H  0.15745320  0.45759164  0.97684171     0.14500
C393        C  0.17907889  0.99113172  0.90130963     0.36100
C394        C  0.19011734  0.52465417  0.10134365     0.36000
N395        N  0.17710090  0.98384007  0.86062095    -0.44200
N396        N  0.19264427  0.53106973  0.14262672    -0.44200
C397        C  0.11772274  0.47319355  0.25164973    -0.00600
C398        C  0.10600237  0.49023782  0.24334484    -0.12500
C399        C  0.11780283  0.01398478  0.27393522     0.01600
C400        C  0.14417550  0.02625310  0.29883232    -0.00700
C401        C  0.15672796  0.00984771  0.30599809    -0.12500
C402        C  0.13996590  0.48239272  0.28667771     0.01500
H403        H  0.08824354  0.48317330  0.21801939     0.14500
H404        H  0.17689365  0.01889096  0.32513258     0.14500
C405        C  0.15151081  0.46502009  0.30012343     0.36100
C406        C  0.10275924  0.02885243  0.26749978     0.36000
N407        N  0.16047040  0.45091589  0.31169388    -0.44200
N408        N  0.09069353  0.04072319  0.26205755    -0.44200
C409        C  0.19614514  0.11011686  0.03274759    -0.00600
C410        C  0.21956703  0.13285899  0.05583287    -0.12500
C411        C  0.22106016  0.13570479  0.10694368     0.01600
C412        C  0.19861761  0.11559986  0.13620329    -0.00700
C413        C  0.17430572  0.09395525  0.11350636    -0.12500
C414        C  0.17285596  0.09087431  0.06207521     0.01500
H415        H  0.23740656  0.14812559  0.03411811     0.14500
H416        H  0.15682515  0.07887173  0.13614546     0.14500
C417        C  0.14767772  0.06721594  0.04131419     0.36100
C418        C  0.24591700  0.15961764  0.12806757     0.36000
N419        N  0.12748426  0.04818891  0.02489641    -0.44200
N420        N  0.26591786  0.17877477  0.14467487    -0.44200
C421        C  0.18671269  0.18057557  0.21866928    -0.00600
C422        C  0.20356217  0.19479373  0.17700383    -0.12500
C423        C  0.19229705  0.20147816  0.13583258     0.01600
C424        C  0.16368959  0.19340124  0.13554984    -0.00700
C425        C  0.14725021  0.18028753  0.17747396    -0.12500
C426        C  0.15845033  0.17436527  0.21907705     0.01500
H427        H  0.22526943  0.19972596  0.17558558     0.14500
H428        H  0.12538424  0.17467072  0.17803090     0.14500
C429        C  0.13996879  0.16107353  0.26078098     0.36100
C430        C  0.21011198  0.21598213  0.09403947     0.36000
N431        N  0.12535520  0.15025631  0.29432306    -0.44200
N432        N  0.22435326  0.22770897  0.06051214    -0.44200
C433        C  0.15894651  0.13108645  0.42253976    -0.00600
C434        C  0.16399738  0.15729090  0.40597756    -0.12500
C435        C  0.15045924  0.17008536  0.42726750     0.01600
C436        C  0.13266209  0.15769492  0.46854402    -0.00700
C437        C  0.12857847  0.13199368  0.48716567    -0.12500
C438        C  0.14133406  0.11842861  0.46392736     0.01500
H439        H  0.17709958  0.16694268  0.37368598     0.14500
H440        H  0.11399080  0.12163211  0.51740336     0.14500
C441        C  0.13461838  0.09087163  0.48071673     0.36100
C442        C  0.15288835  0.19443660  0.40237034     0.36000
N443        N  0.12917217  0.06869129  0.49392622    -0.44200
N444        N  0.15488888  0.21370554  0.38145103    -0.44200
C445        C  0.09428513  0.32601439  0.61272326    -0.00600
C446        C  0.09365387  0.30381361  0.63981505    -0.12500
C447        C  0.09357276  0.28129304  0.61592441     0.01600
C448        C  0.09366521  0.28039926  0.56371302    -0.00700
C449        C  0.09316856  0.30206736  0.53668865    -0.12500
C450        C  0.09365933  0.32476688  0.56056615     0.01500
H451        H  0.09398771  0.30440852  0.67998654     0.14500
H452        H  0.09307802  0.30166720  0.49651334     0.14500
C453        C  0.09291990  0.34615122  0.53067673     0.36100
C454        C  0.09292449  0.25923317  0.64588070     0.36000
N455        N  0.09226942  0.36325896  0.50671973    -0.44200
N456        N  0.09238838  0.24156471  0.66997234    -0.44200
C457        C  0.02152904  0.34528261  0.80080086    -0.00600
C458        C  0.01537972  0.31999866  0.82443081    -0.12500
C459        C  0.99991125  0.31134581  0.86864858     0.01600
C460        C  0.49212135  0.33127435  0.88923419    -0.00700
C461        C  0.49797985  0.35607564  0.86471107    -0.12500
C462        C  0.51129934  0.36322899  0.81877580     0.01500
H463        H  0.02271448  0.30699350  0.80829488     0.14500
H464        H  0.48993499  0.36881014  0.87941478     0.14500
C465        C  0.51398327  0.38780833  0.79437277     0.36100
C466        C  0.99318957  0.28472991  0.89051393     0.36000
N467        N  0.51547980  0.40738139  0.77545583    -0.44200
N468        N  0.98792647  0.26345061  0.90815073    -0.44200
C469        C  0.13203288  0.49266856  0.69227801    -0.00600
C470        C  0.11697719  0.00462511  0.70574623    -0.12500
C471        C  0.12840079  0.03037673  0.73064742     0.01600
C472        C  0.15740231  0.04574275  0.74230944    -0.00700
C473        C  0.17488895  0.03605979  0.72486094    -0.12500
C474        C  0.16162508  0.51070368  0.69500039     0.01500
H475        H  0.09429681  0.99208754  0.70004942     0.14500
H476        H  0.19719398  0.04762796  0.73426783     0.14500
C477        C  0.18041823  0.50150210  0.67858160     0.36100
C478        C  0.10969216  0.03975301  0.74689277     0.36000
N479        N  0.19549738  0.49410092  0.66553894    -0.44200
N480        N  0.09478144  0.04733387  0.76006764    -0.44200
C481        C  0.10474223  0.41005240  0.86352532    -0.00600
C482        C  0.08795531  0.41859351  0.88799334    -0.12500
C483        C  0.08531442  0.41678260  0.93935716     0.01600
C484        C  0.09960560  0.40614353  0.96710503    -0.00700
C485        C  0.11670469  0.39808396  0.94289689    -0.12500
C486        C  0.11977148  0.40028057  0.89183189     0.01500
H487        H  0.07615687  0.42600560  0.86695839     0.14500
H488        H  0.12862678  0.39087336  0.96414564     0.14500
C489        C  0.13820183  0.39182871  0.87033465     0.36100
C490        C  0.06740236  0.42543361  0.96232326     0.36000
N491        N  0.15290350  0.38487442  0.85355554    -0.44200
N492        N  0.05314208  0.43244947  0.98076700    -0.44200
C493        C  0.41979845  0.24453980  0.56920096    -0.00600
C494        C  0.42382344  0.24416194  0.62074324    -0.12500
C495        C  0.42547687  0.22203504  0.64318657     0.01600
C496        C  0.42214404  0.19959915  0.61385219    -0.00700
C497        C  0.42214495  0.20217816  0.56196989    -0.12500
C498        C  0.42101851  0.22447580  0.53943866     0.01500
H499        H  0.42334593  0.25989323  0.64382940     0.14500
H500        H  0.41994088  0.18512069  0.53917173     0.14500
C501        C  0.41754681  0.22439484  0.48635624     0.36100
C502        C  0.42789346  0.22141770  0.69639973     0.36000
N503        N  0.41473141  0.22442947  0.44382437    -0.44200
N504        N  0.42999255  0.22103902  0.73906500    -0.44200
C505        C  0.32140224  0.22988994  0.45568492    -0.00600
C506        C  0.32591112  0.22842888  0.40492020    -0.12500
C507        C  0.30536827  0.20697553  0.37507701     0.01600
C508        C  0.27950643  0.18615989  0.39577094    -0.00700
C509        C  0.27494266  0.18716739  0.44651142    -0.12500
C510        C  0.29543410  0.20881448  0.47650327     0.01500
H511        H  0.34568049  0.24410430  0.38827644     0.14500
H512        H  0.25514554  0.17116849  0.46263744     0.14500
C513        C  0.28930868  0.20825153  0.52855428     0.36100
C514        C  0.31194228  0.20612028  0.32367020     0.36000
N515        N  0.28427788  0.20769773  0.57022967    -0.44200
N516        N  0.31732959  0.20540188  0.28257179    -0.44200
C517        C  0.48426107  0.36783076  0.53315398    -0.00600
C518        C  0.49596942  0.39481952  0.55389372    -0.12500
C519        C  0.02353725  0.40772181  0.57336312     0.01600
C520        C  0.03915824  0.39400112  0.57562194    -0.00700
C521        C  0.02880269  0.36831384  0.55059574    -0.12500
C522        C  0.00166267  0.35456027  0.52920037     0.01500
H523        H  0.48307627  0.40436480  0.55700825     0.14500
H524        H  0.04070092  0.35763876  0.55197564     0.14500
C525        C  0.99082855  0.32677213  0.50889122     0.36100
C526        C  0.03432113  0.43531158  0.59466242     0.36000
N527        N  0.98233136  0.30452495  0.49259030    -0.44200
N528        N  0.04309148  0.45746859  0.61156880    -0.44200
C529        C  0.40381850  0.31401682  0.70712367    -0.00600
C530        C  0.37957208  0.30299319  0.73630411    -0.12500
C531        C  0.38191415  0.30492549  0.78756575     0.01600
C532        C  0.40886391  0.31750209  0.80956112    -0.00700
C533        C  0.43314152  0.33005968  0.78012961    -0.12500
C534        C  0.43080102  0.32856440  0.72871745     0.01500
H535        H  0.35884379  0.29304380  0.71890383     0.14500
H536        H  0.45379867  0.33982208  0.79729498     0.14500
C537        C  0.45607391  0.34108763  0.69904230     0.36100
C538        C  0.35663243  0.29476795  0.81664571     0.36000
N539        N  0.47631367  0.35114217  0.67524855    -0.44200
N540        N  0.33634757  0.28696223  0.83969976    -0.44200
C541        C  0.38167986  0.35646465  0.42116803    -0.00600
C542        C  0.35600650  0.34045340  0.39547896    -0.12500
C543        C  0.34183626  0.35331077  0.37477441     0.01600
C544        C  0.35331167  0.38267149  0.38031014    -0.00700
C545        C  0.38046166  0.39885689  0.40101494    -0.12500
C546        C  0.39475459  0.38612823  0.42079433     0.01500
H547        H  0.34586229  0.31767847  0.39508428     0.14500
H548        H  0.39007663  0.42152820  0.40380062     0.14500
C549        C  0.42242777  0.40394109  0.44238128     0.36100
C550        C  0.31461377  0.33556516  0.35177476     0.36000
N551        N  0.44461792  0.41811860  0.45961491    -0.44200
N552        N  0.29286068  0.32133935  0.33308152    -0.44200
C553        C  0.22884494  0.41361990  0.77075596    -0.00600
C554        C  0.22160419  0.40400935  0.72166012    -0.12500
C555        C  0.20034839  0.40559889  0.69598334     0.01600
C556        C  0.18578884  0.41699122  0.71933479    -0.00700
C557        C  0.19465812  0.42900913  0.76669149    -0.12500
C558        C  0.21622680  0.42757368  0.79246866     0.01500
H559        H  0.23147754  0.39371266  0.70410942     0.14500
H560        H  0.18310952  0.43732821  0.78521974     0.14500
C561        C  0.22294605  0.43795022  0.84259605     0.36100
C562        C  0.19224648  0.39333836  0.64714629     0.36000
N563        N  0.22825822  0.44625957  0.88282641    -0.44200
N564        N  0.18578130  0.38354824  0.60800826    -0.44200
C565        C  0.17753322  0.28377804  0.95094244    -0.00600
C566        C  0.20159800  0.28187227  0.94259495    -0.12500
C567        C  0.22530910  0.30384032  0.91906895     0.01600
C568        C  0.22538826  0.32855323  0.90533453    -0.00700
C569        C  0.20178796  0.33082503  0.91542002    -0.12500
C570        C  0.17790737  0.30867731  0.93768579     0.01500
H571        H  0.20173045  0.26309063  0.95405623     0.14500
H572        H  0.20172602  0.34975261  0.90467538     0.14500
C573        C  0.15475269  0.31279338  0.94867919     0.36100
C574        C  0.24942783  0.30082046  0.91037187     0.36000
N575        N  0.13662536  0.31678019  0.95750544    -0.44200
N576        N  0.26873493  0.29836613  0.90341712    -0.44200
C577        C  0.31905629  0.33846522  0.72852453    -0.00600
C578        C  0.29925981  0.31410383  0.70259773    -0.12500
C579        C  0.30701697  0.30538880  0.65987039     0.01600
C580        C  0.33439445  0.32224733  0.64063216    -0.00700
C581        C  0.35422401  0.34596385  0.66728886    -0.12500
C582        C  0.34729719  0.35344405  0.71176051     0.01500
H583        H  0.27754277  0.30226939  0.71502850     0.14500
H584        H  0.37580921  0.35823302  0.65439828     0.14500
C585        C  0.36978876  0.37703855  0.73823441     0.36100
C586        C  0.28647701  0.27961766  0.63578153     0.36000
N587        N  0.38803765  0.39580208  0.75930098    -0.44200
N588        N  0.27000815  0.25886956  0.61665241    -0.44200
C589        C  0.34894448  0.39246159  0.92992144    -0.00600
C590        C  0.33237740  0.36548637  0.95105507    -0.12500
C591        C  0.34488328  0.35084007  0.97135100     0.01600
C592        C  0.37458848  0.36345750  0.97164731    -0.00700
C593        C  0.39105467  0.39138911  0.95456307    -0.12500
C594        C  0.37861315  0.40580197  0.93375921     0.01500
H595        H  0.30956309  0.35480267  0.94777904     0.14500
H596        H  0.41389855  0.40153426  0.95500473     0.14500
C597        C  0.39682331  0.43392812  0.91478646     0.36100
C598        C  0.32672733  0.32192692  0.98651374     0.36000
N599        N  0.41138846  0.45646559  0.89956778    -0.44200
N600        N  0.31211207  0.29869732  0.99837120    -0.44200
C601        C  0.35454319  0.49115451  0.80598438    -0.00600
C602        C  0.34351841  0.00817510  0.81125051    -0.12500
C603        C  0.35564060  0.03549922  0.79068970     0.01600
C604        C  0.37982271  0.04612615  0.76047745    -0.00700
C605        C  0.39335160  0.03052922  0.75690389    -0.12500
C606        C  0.38083957  0.50324226  0.78159647     0.01500
H607        H  0.32370450  0.99927492  0.83098468     0.14500
H608        H  0.41240051  0.03872474  0.73500793     0.14500
C609        C  0.39594093  0.48835375  0.77730313     0.36100
C610        C  0.34194004  0.05139997  0.79858596     0.36000
N611        N  0.40802411  0.47641392  0.77418989    -0.44200
N612        N  0.33118293  0.06431735  0.80573169    -0.44200
C613        C  0.29662042  0.40120960  0.64381826    -0.00600
C614        C  0.32125646  0.42218362  0.62109362    -0.12500
C615        C  0.32208390  0.42675361  0.57007901     0.01600
C616        C  0.29771958  0.40981545  0.54060202    -0.00700
C617        C  0.27335213  0.38828804  0.56344347    -0.12500
C618        C  0.27253913  0.38383383  0.61439408     0.01500
H619        H  0.33985701  0.43545212  0.64345407     0.14500
H620        H  0.25466118  0.37482057  0.54151336     0.10900
C621        C  0.24688315  0.36070953  0.63479704     0.36100
C622        C  0.34813525  0.44940529  0.54995503     0.36000
N623        N  0.22626625  0.34217264  0.65087128    -0.44200
N624        N  0.36907104  0.46756777  0.53407472    -0.44200
C625        C  0.31916864  0.09720731  0.23880548    -0.00600
C626        C  0.29742489  0.09256944  0.20600197    -0.12500
C627        C  0.27336059  0.09231192  0.22315079     0.01600
C628        C  0.27038151  0.09564405  0.27426067    -0.00700
C629        C  0.29043638  0.09675101  0.30748719    -0.12500
C630        C  0.31484833  0.09787101  0.29029790     0.01500
H631        H  0.30032912  0.09162639  0.16651871     0.14500
H632        H  0.28827323  0.09931136  0.34673575     0.14500
C633        C  0.33527295  0.10079510  0.32695097     0.36100
C634        C  0.25308382  0.09036048  0.18692274     0.36000
N635        N  0.35038782  0.10279326  0.35871995    -0.44200
N636        N  0.23736320  0.08865298  0.15653342    -0.44200
C637        C  0.40492405  0.23156482  0.05763852    -0.00600
C638        C  0.37886518  0.20961776  0.07488470    -0.12500
C639        C  0.37686324  0.18619802  0.09907472     0.01600
C640        C  0.40142479  0.18494354  0.10785129    -0.00700
C641        C  0.42749622  0.20677976  0.09061170    -0.12500
C642        C  0.42936539  0.22970557  0.06466720     0.01500
H643        H  0.35987588  0.21051150  0.06862780     0.14500
H644        H  0.44644735  0.20590752  0.09756050     0.14500
C645        C  0.45669721  0.25131037  0.04695733     0.36100
C646        C  0.34950865  0.16422790  0.11588717     0.36000
N647        N  0.47860111  0.26853688  0.03264755    -0.44200
N648        N  0.32746165  0.14668875  0.12899287    -0.44200
C649        C  0.46076905  0.12297998  0.07739952    -0.00600
C650        C  0.47005926  0.14854623  0.05190512    -0.12500
C651        C  0.49672614  0.16276730  0.02895061     0.01600
C652        C  0.01213201  0.15058444  0.02852346    -0.00700
C653        C  0.00061672  0.12294749  0.04654635    -0.12500
C654        C  0.47706794  0.10999758  0.07423828     0.01500
H655        H  0.45778818  0.15879669  0.05406570     0.14500
H656        H  0.01335613  0.11314581  0.04639504     0.14500
C657        C  0.46811447  0.08309165  0.09739873     0.36100
C658        C  0.50665339  0.19051714  0.00873235     0.36000
N659        N  0.46101476  0.06158955  0.11610392    -0.44200
N660        N  0.51442899  0.21275045  0.99260953    -0.44200
C661        C  0.48939447  0.17954721  0.28625674    -0.00600
C662        C  0.49156287  0.20095577  0.31752345    -0.12500
C663        C  0.00528079  0.20576697  0.36062911     0.01600
C664        C  0.01751174  0.19002054  0.37600223    -0.00700
C665        C  0.01606640  0.16931729  0.34440810    -0.12500
C666        C  0.50402956  0.16567890  0.30005094     0.01500
H667        H  0.48048166  0.21184126  0.30783367     0.14500
H668        H  0.02643848  0.15788484  0.35493317     0.14500
C669        C  0.50547781  0.14545335  0.26852733     0.36100
C670        C  0.00684904  0.22774499  0.39145266     0.36000
N671        N  0.50693591  0.12942401  0.24326247    -0.44200
N672        N  0.00801562  0.24527077  0.41634296    -0.44200
C673        C  0.37320976  0.02597351  0.20855665    -0.00600
C674        C  0.38966160  0.01569247  0.22934833    -0.12500
C675        C  0.37711505  0.98887317  0.25088512     0.01600
C676        C  0.34728228  0.47058670  0.25070411    -0.00700
C677        C  0.33147199  0.47838185  0.22046017    -0.12500
C678        C  0.34365287  0.00756284  0.20489793     0.01500
H679        H  0.41241758  0.02940444  0.23166290     0.14500
H680        H  0.30869979  0.46477399  0.21853350     0.14500
C681        C  0.32553132  0.01696990  0.18478838     0.36100
C682        C  0.39510552  0.98045010  0.27522519     0.36000
N683        N  0.31244014  0.51961635  0.15022676    -0.44200
N684        N  0.40942151  0.97369515  0.29502296    -0.44200
C685        C  0.41273778  0.11954143  0.37053395    -0.00600
C686        C  0.40978102  0.09577269  0.39447911    -0.12500
C687        C  0.40642558  0.09293371  0.44572248     0.01600
C688        C  0.40627723  0.11457417  0.47377548    -0.00700
C689        C  0.41116916  0.13916902  0.44955343    -0.12500
C690        C  0.41454864  0.14189396  0.39842079     0.01500
H691        H  0.40874085  0.07879903  0.37280248     0.14500
H692        H  0.41166559  0.15610906  0.47030944     0.14500
C693        C  0.41982204  0.16784786  0.37549924     0.36100
C694        C  0.40157849  0.06681199  0.46723754     0.36000
N695        N  0.42408542  0.18864962  0.35717875    -0.44200
N696        N  0.39747898  0.04573967  0.48410435    -0.44200
O697        O  0.39673334  0.62604683  0.29565228    -0.82300
C698        C  0.43719743  0.61316901  0.11428283     0.97100
O699        O  0.44150075  0.60501807  0.15559305    -0.71400
O700        O  0.46300453  0.64714854  0.21776266    -0.75000
Al701      Al  0.43217700  0.60963270  0.22159496     1.49000
C702        C  0.46495416  0.66522079  0.24810749     0.92300
O703        O  0.41410206  0.66862916  0.17935765    -0.81200
O704        O  0.35115138  0.58891644  0.19184680    -0.74800
Al705      Al  0.40514764  0.64582715  0.23617897     1.90100
O706        O  0.38277069  0.63542775  0.13064072    -0.73800
O707        O  0.38014120  0.56559353  0.16108206    -0.73700
O708        O  0.41562734  0.61529215  0.10754247    -0.79300
O709        O  0.40497569  0.57146384  0.22829850    -0.77600
O710        O  0.40714664  0.61911754  0.20344551    -1.13700
O711        O  0.42797268  0.61260135  0.29167133    -0.72900
C712        C  0.41195688  0.61802510  0.31636287     0.97800
C713        C  0.39886754  0.66126564  0.14099694     0.94200
Al714      Al  0.38426214  0.60252782  0.15172346     1.55600
O715        O  0.44372426  0.66738399  0.25605500    -0.77500
C716        C  0.38677341  0.55539285  0.19731190     0.98400
C717        C  0.34621556  0.60450101  0.21886017     0.93300
O718        O  0.36533372  0.62961656  0.22773174    -0.82800
O719        O  0.27481517  0.88700493  0.72025977    -0.82300
C720        C  0.33732518  0.90384424  0.89294217     0.97100
O721        O  0.34869367  0.91366366  0.85139388    -0.71400
O722        O  0.32699901  0.87119585  0.79053821    -0.75000
Al723      Al  0.33147991  0.90746385  0.78714379     1.49000
C724        C  0.31004805  0.85207701  0.76183989     0.92300
O725        O  0.25776807  0.84478894  0.83743451    -0.81200
O726        O  0.26914939  0.92247856  0.82292251    -0.74800
Al727      Al  0.26740369  0.86712372  0.77966299     1.90100
O728        O  0.25883948  0.87741570  0.88518306    -0.73800
O729        O  0.32362070  0.94975751  0.84992538    -0.73700
O730        O  0.31355470  0.90093815  0.90296177    -0.79300
O731        O  0.34035388  0.94477212  0.78025128    -0.77600
O732        O  0.29711407  0.89562518  0.80929012    -1.13700
O733        O  0.32062128  0.90347564  0.71851657    -0.72900
C734        C  0.29769921  0.89750129  0.69696551     0.97800
C735        C  0.24973542  0.85168110  0.87557199     0.94200
Al736      Al  0.29184555  0.91160591  0.86169838     1.55600
O737        O  0.28576460  0.84834660  0.75527533    -0.77500
C738        C  0.33898613  0.96044803  0.81205123     0.98400
C739        C  0.24764484  0.90499841  0.79799292     0.93300
O740        O  0.24184582  0.87982809  0.79375166    -0.82800
O741        O  0.39095693  0.78704783  0.63431986    -0.82300
C742        C  0.39210138  0.84211540  0.45705752     0.97100
O743        O  0.40116513  0.85337062  0.49880783    -0.71400
O744        O  0.36274699  0.83027458  0.56750909    -0.75000
Al745      Al  0.40054845  0.83881435  0.56268261     1.49000
C746        C  0.34645495  0.81282324  0.59925271     0.92300
O747        O  0.33990470  0.75857606  0.52663528    -0.81200
O748        O  0.42055503  0.78061588  0.52004554    -0.74800
Al749      Al  0.36670321  0.77441144  0.57876013     1.90100
O750        O  0.37028701  0.76471416  0.46878133    -0.73800
O751        O  0.44137866  0.83311062  0.49165588    -0.73700
O752        O  0.38920119  0.81838521  0.44747383    -0.79300
O753        O  0.43905846  0.85146075  0.56167825    -0.77600
O754        O  0.39049013  0.80437793  0.54251249    -1.13700
O755        O  0.40212164  0.83138169  0.63077211    -0.72900
C756        C  0.40000048  0.81068160  0.65430245     0.97800
C757        C  0.34517138  0.75220368  0.48491877     0.94200
Al758      Al  0.40420337  0.79957920  0.48628700     1.55600
O759        O  0.34569828  0.78989384  0.60574103    -0.77500
C760        C  0.45338714  0.84963754  0.52768377     0.98400
C761        C  0.40752417  0.75994131  0.54908685     0.93300
O762        O  0.38291245  0.75232756  0.56319522    -0.82800
O763        O  0.11517931  0.89767316  0.78725906    -0.82300
C764        C  0.06234433  0.90336772  0.61316587     0.97100
O765        O  0.05943892  0.91087592  0.65567615    -0.71400
O766        O  0.04197336  0.87289432  0.72573391    -0.75000
Al767      Al  0.07363854  0.90984772  0.71953943     1.49000
C768        C  0.04224704  0.85697423  0.75893606     0.92300
O769        O  0.08504469  0.84635356  0.68214035    -0.81200
O770        O  0.15188785  0.92458354  0.67814688    -0.74800
Al771      Al  0.09988892  0.87285599  0.73377979     1.90100
O772        O  0.11247948  0.87610342  0.62442404    -0.73800
O773        O  0.12485592  0.95072651  0.65155199    -0.73700
O774        O  0.08345709  0.90104558  0.60341141    -0.79300
O775        O  0.10106119  0.94771497  0.71796249    -0.77600
O776        O  0.09651170  0.89834235  0.69851508    -1.13700
O777        O  0.08375348  0.91086104  0.78789899    -0.72900
C778        C  0.10187844  0.90703916  0.81008105     0.97800
C779        C  0.09708603  0.85099650  0.64060438     0.94200
Al780      Al  0.11654882  0.91208442  0.64342238     1.55600
O781        O  0.06373970  0.85488007  0.76431507    -0.77500
C782        C  0.11928192  0.96232865  0.68638523     0.98400
C783        C  0.15708179  0.90849786  0.70365214     0.93300
O784        O  0.13742607  0.88438114  0.71559179    -0.82800
O785        O  0.22319122  0.62547509  0.20893684    -0.82300
C786        C  0.17005521  0.61857067  0.38839394     0.97100
O787        O  0.15747334  0.61061597  0.34722670    -0.71400
O788        O  0.18229022  0.65228013  0.28427785    -0.75000
Al789      Al  0.17204607  0.61404606  0.28203850     1.49000
C790        C  0.19920881  0.66949570  0.25297042     0.92300
O791        O  0.25214215  0.67080982  0.32145131    -0.81200
O792        O  0.23005495  0.59050032  0.31647376    -0.74800
Al793      Al  0.23633090  0.64689837  0.26659668     1.90100
O794        O  0.24576441  0.63814095  0.37567595    -0.73800
O795        O  0.17677484  0.56807811  0.34249633    -0.73700
O796        O  0.19242100  0.61820354  0.39664717    -0.79300
O797        O  0.15820878  0.57548776  0.27648149    -0.77600
O798        O  0.20625481  0.62179497  0.30086962    -1.13700
O799        O  0.17930250  0.61595921  0.21261377    -0.72900
C800        C  0.20005717  0.61888155  0.18822859     0.97800
C801        C  0.25814845  0.66384331  0.36226484     0.94200
Al802      Al  0.21074010  0.60494190  0.35383355     1.55600
O803        O  0.22155587  0.66958031  0.24382071    -0.77500
C804        C  0.15980311  0.55866567  0.30590026     0.98400
C805        C  0.25116801  0.60508597  0.28916465     0.93300
O806        O  0.25830350  0.62994097  0.27760656    -0.82800
O807        O  0.22122594  0.62183321  0.95704413    -0.82300
C808        C  0.16750676  0.56726611  0.78045403     0.97100
O809        O  0.15660025  0.56102124  0.82296938    -0.71400
O810        O  0.18110127  0.54817903  0.89312665    -0.75000
Al811      Al  0.17004656  0.57561341  0.88746775     1.49000
C812        C  0.19891756  0.55107335  0.92556997     0.92300
O813        O  0.24898816  0.59969396  0.85038102    -0.81200
O814        O  0.22794384  0.65887906  0.84845965    -0.74800
Al815      Al  0.23425633  0.61059328  0.90306527     1.90100
O816        O  0.24270266  0.62504776  0.79345126    -0.73800
O817        O  0.17464862  0.62669205  0.82406044    -0.73700
O818        O  0.18893170  0.59112030  0.77192053    -0.79300
O819        O  0.15419441  0.59841119  0.88657997    -0.77600
O820        O  0.20382287  0.60311809  0.86768171    -1.13700
O821        O  0.17761082  0.58558402  0.95593133    -0.72900
C822        C  0.19784659  0.60620302  0.97832728     0.97800
C823        C  0.25466957  0.61174930  0.80844855     0.94200
Al824      Al  0.20799337  0.62361438  0.81359481     1.55600
O825        O  0.22022173  0.57487336  0.93299890    -0.77500
C826        C  0.15666504  0.61773662  0.85865113     0.98400
C827        C  0.25042746  0.66657470  0.87238697     0.93300
O828        O  0.25698490  0.64891002  0.88584644    -0.82800
O829        O  0.11326989  0.73070028  0.38639446    -0.82300
C830        C  0.05846339  0.67119093  0.55995178     0.97100
O831        O  0.05564959  0.66047442  0.51760650    -0.71400
O832        O  0.03984624  0.68364804  0.44901606    -0.75000
Al833      Al  0.07019910  0.67676761  0.45411896     1.49000
C834        C  0.04098940  0.70127259  0.41781125     0.92300
O835        O  0.08712298  0.75387554  0.49360271    -0.81200
O836        O  0.15050066  0.73940192  0.50337656    -0.74800
Al837      Al  0.10007029  0.74106013  0.44178588     1.90100
O838        O  0.11150045  0.74879990  0.55365703    -0.73800
O839        O  0.12048047  0.68501296  0.52277367    -0.73700
O840        O  0.08018055  0.69444194  0.57038848    -0.79300
O841        O  0.09700719  0.66591145  0.45411939    -0.77600
O842        O  0.09472525  0.71122172  0.47646035    -1.13700
O843        O  0.07969687  0.68618079  0.38601293    -0.72900
C844        C  0.09829467  0.70778856  0.36344801     0.97800
C845        C  0.09789045  0.75997044  0.53645351     0.94200
Al846      Al  0.11388240  0.71619576  0.53311130     1.55600
O847        O  0.06352506  0.72443935  0.41220150    -0.77500
C848        C  0.11582327  0.66978227  0.48481377     0.98400
C849        C  0.15705947  0.76163709  0.47976184     0.93300
O850        O  0.13812703  0.76516764  0.46085891    -0.82800
O851        O  0.27419012  0.90440476  0.46542817    -0.82300
C852        C  0.33360795  0.94917591  0.28998786     0.97100
O853        O  0.34433779  0.95519007  0.33300437    -0.71400
O854        O  0.32447887  0.97436179  0.40003251    -0.75000
Al855      Al  0.33000355  0.94294915  0.39750625     1.49000
C856        C  0.30574630  0.97395839  0.42679965     0.92300
O857        O  0.25530766  0.92800484  0.34699062    -0.81200
O858        O  0.26701963  0.86223658  0.36933237    -0.74800
Al859      Al  0.26549429  0.91603937  0.40536916     1.90100
O860        O  0.25622776  0.89567032  0.30101505    -0.73800
O861        O  0.32008110  0.88929373  0.33796246    -0.73700
O862        O  0.31077512  0.92617524  0.28121110    -0.79300
O863        O  0.34202489  0.91671393  0.40044972    -0.77600
O864        O  0.29538806  0.91845210  0.37609763    -1.13700
O865        O  0.32033312  0.93399405  0.46535143    -0.72900
C866        C  0.29783985  0.91677719  0.48768256     0.97800
C867        C  0.24760749  0.91269797  0.30871495     0.94200
Al868      Al  0.28911170  0.89512943  0.32594424     1.55600
O869        O  0.28219991  0.95213445  0.43037076    -0.77500
C870        C  0.33816947  0.89714367  0.37217057     0.98400
C871        C  0.24600690  0.85910685  0.39376542     0.93300
O872        O  0.23981301  0.87789503  0.39030597    -0.82800
O873        O  0.10862539  0.73214519  0.12614689    -0.82300
C874        C  0.10673388  0.67472413  0.95316155     0.97100
O875        O  0.09869668  0.66384581  0.99571827    -0.71400
O876        O  0.13689357  0.68718133  0.06648615    -0.75000
Al877      Al  0.09895463  0.67894333  0.05953762     1.49000
C878        C  0.15349563  0.70541642  0.09700590     0.92300
O879        O  0.15940944  0.75636736  0.02033485    -0.81200
O880        O  0.07918073  0.73774609  0.01397163    -0.74800
Al881      Al  0.13305342  0.74322748  0.07186081     1.90100
O882        O  0.12921319  0.75217003  0.96202772    -0.73800
O883        O  0.05675145  0.68474031  0.98802850    -0.73700
O884        O  0.10816327  0.69778641  0.94251767    -0.79300
O885        O  0.06042499  0.66611070  0.05733208    -0.77600
O886        O  0.10875136  0.71302154  0.03718561    -1.13700
O887        O  0.09756507  0.68791319  0.12778210    -0.72900
C888        C  0.10082489  0.70960648  0.14972185     0.97800
C889        C  0.15438660  0.76306243  0.97844678     0.94200
Al890      Al  0.09446695  0.71768980  0.98077337     1.55600
O891        O  0.15329519  0.72780999  0.10256287    -0.77500
C892        C  0.04539883  0.66813093  0.02432855     0.98400
C893        C  0.09339796  0.75899434  0.04122813     0.93300
O894        O  0.11850838  0.76657722  0.05249511    -0.82800
O895        O  0.10886602  0.89276489  0.04493472    -0.82300
C896        C  0.11117254  0.94844937  0.21945684     0.97100
O897        O  0.10278790  0.95128796  0.17732540    -0.71400
O898        O  0.14121227  0.96658561  0.10798550    -0.75000
Al899      Al  0.10281554  0.93713109  0.11342822     1.49000
C900        C  0.15684257  0.96482730  0.07617463     0.92300
O901        O  0.16172998  0.91805264  0.14935815    -0.81200
O902        O  0.08056382  0.85696908  0.15691495    -0.74800
Al903      Al  0.13438977  0.90548353  0.09840108     1.90100
O904        O  0.13172354  0.89256770  0.20814880    -0.73800
O905        O  0.06040699  0.88903104  0.18418329    -0.73700
O906        O  0.11274310  0.92686207  0.22940295    -0.79300
O907        O  0.06408508  0.91133476  0.11472638    -0.77600
O908        O  0.11153441  0.91199401  0.13442495    -1.13700
O909        O  0.10116429  0.92801256  0.04497088    -0.72900
C910        C  0.10222631  0.90865212  0.02238725     0.97800
C911        C  0.15679000  0.90658613  0.19150342     0.94200
Al912      Al  0.09747688  0.89287245  0.19054212     1.55600
O913        O  0.15529302  0.94166385  0.06888948    -0.77500
C914        C  0.04911928  0.89485457  0.14853791     0.98400
C915        C  0.09383157  0.84952523  0.12900335     0.93300
O916        O  0.11876961  0.86706674  0.11651720    -0.82800
O917        O  0.39075928  0.62517716  0.54692256    -0.82300
C918        C  0.38706779  0.56840073  0.72509118     0.97100
O919        O  0.39186890  0.56350569  0.68196610    -0.71400
O920        O  0.35363126  0.55176221  0.61344435    -0.75000
Al921      Al  0.39289909  0.57839382  0.61844921     1.49000
C922        C  0.33941969  0.55501927  0.58011750     0.92300
O923        O  0.33911931  0.60380736  0.65334871    -0.81200
O924        O  0.42103815  0.66098971  0.66024860    -0.74800
Al925      Al  0.36574115  0.61438581  0.60178151     1.90100
O926        O  0.37022725  0.62672592  0.71303529    -0.73800
O927        O  0.43969871  0.62737754  0.68463337    -0.73700
O928        O  0.38834949  0.59139567  0.73482127    -0.79300
O929        O  0.43204994  0.60100916  0.61949796    -0.77600
O930        O  0.38750713  0.60584730  0.63843850    -1.13700
O931        O  0.39559083  0.58810609  0.55037816    -0.72900
C932        C  0.39718139  0.60858673  0.52659091     0.97800
C933        C  0.34502281  0.61457137  0.69612859     0.94200
Al934      Al  0.40349487  0.62501632  0.69398442     1.55600
O935        O  0.34271397  0.57886974  0.57238097    -0.77500
C936        C  0.44890659  0.61922178  0.64951396     0.98400
C937        C  0.40830289  0.66938037  0.63249373     0.93300
O938        O  0.38328641  0.65267487  0.61938871    -0.82800
O939        O  0.39909776  0.78937853  0.87998035    -0.82300
C940        C  0.43911810  0.83864579  0.06493875     0.97100
O941        O  0.44537402  0.85152149  0.02396207    -0.71400
O942        O  0.46705401  0.83282288  0.95946558    -0.75000
Al943      Al  0.43649868  0.83956317  0.95731557     1.49000
C944        C  0.46846622  0.81710198  0.92752607     0.92300
O945        O  0.41770569  0.76120291  0.99113704    -0.81200
O946        O  0.35429353  0.77616590  0.97886475    -0.74800
Al947      Al  0.40844805  0.77616807  0.93643671     1.90100
O948        O  0.38644766  0.76162419  0.04096422    -0.73800
O949        O  0.38168668  0.82810741  0.01282428    -0.73700
O950        O  0.41680151  0.81486595  0.06955047    -0.79300
O951        O  0.41017616  0.85120292  0.95177894    -0.77600
O952        O  0.41071029  0.80412281  0.97222289    -1.13700
O953        O  0.43216711  0.83416449  0.88727052    -0.72900
C954        C  0.41401691  0.81365358  0.86187466     0.97800
C955        C  0.40254452  0.75234884  0.02934468     0.94200
Al956      Al  0.38671647  0.79591059  0.02197496     1.55600
O957        O  0.44669079  0.79431959  0.91605312    -0.77500
C958        C  0.38993463  0.84663701  0.97898202     0.98400
C959        C  0.34991890  0.75624188  0.95045494     0.93300
O960        O  0.36904370  0.75053648  0.94442184    -0.82800
C961        C  0.01803301  0.88208226  0.14381311    -0.00600
C962        C  0.99995464  0.85294637  0.15071554    -0.12500
C963        C  0.47032648  0.83641910  0.13204722     0.01600
C964        C  0.46030450  0.85171518  0.10539879    -0.00700
C965        C  0.47631014  0.88124897  0.10651262    -0.12500
C966        C  0.00680608  0.89778588  0.12269748     0.01500
H967        H  0.00816976  0.84069942  0.16755061     0.14500
H968        H  0.46851433  0.89330385  0.08746676     0.14500
C969        C  0.02369863  0.92804620  0.11727091     0.36100
C970        C  0.45378870  0.80613456  0.13587770     0.36000
N971        N  0.03733580  0.95224804  0.11265093    -0.44200
N972        N  0.44039685  0.78188628  0.13976792    -0.44200
C973        C  0.08122941  0.82070715  0.10881326    -0.00600
C974        C  0.07862755  0.81759686  0.05694411    -0.12500
C975        C  0.07792066  0.79459527  0.03368198     0.01600
C976        C  0.08154877  0.77534245  0.06237921    -0.00700
C977        C  0.08043004  0.77649769  0.11434902    -0.12500
C978        C  0.07939652  0.79856291  0.13764974     0.01500
H979        H  0.07918519  0.83418299  0.03437382     0.14500
H980        H  0.08219448  0.76114922  0.13687153     0.14500
C981        C  0.07851255  0.79911121  0.19100893     0.36100
C982        C  0.07543766  0.79224284  0.98044576     0.36000
N983        N  0.07760925  0.79941590  0.23380982    -0.44200
N984        N  0.07311974  0.79019188  0.93778081    -0.44200
C985        C  0.18048624  0.90830882  0.22022943    -0.00600
C986        C  0.20389026  0.93475750  0.23209749    -0.12500
C987        C  0.22629022  0.93688389  0.26068911     0.01600
C988        C  0.22591398  0.91219304  0.27571338    -0.00700
C989        C  0.20331021  0.88587772  0.26116586    -0.12500
C990        C  0.18067552  0.88379560  0.23389930     0.01500
H991        H  0.20436724  0.95373160  0.21991028     0.14500
H992        H  0.20301676  0.86679975  0.27208823     0.14500
C993        C  0.15867837  0.85635706  0.21795860     0.36100
C994        C  0.24956694  0.96448370  0.27340175     0.36000
N995        N  0.14135253  0.83434210  0.20451724    -0.44200
N996        N  0.26824542  0.98656664  0.28371500    -0.44200
C997        C  0.31224970  0.99596403  0.46333346    -0.00600
C998        C  0.30471682  0.98694773  0.51273759    -0.12500
C999        C  0.31117955  0.50455985  0.55318135     0.01600
C1000       C  0.32462106  0.53337505  0.54206150    -0.00700
C1001       C  0.32906679  0.54228924  0.49199603    -0.12500
C1002       C  0.32247960  0.52301975  0.45354371     0.01500
H1003       H  0.29375611  0.96466489  0.52166755     0.14500
H1004       H  0.33977584  0.56455473  0.48301615     0.14500
C1005       C  0.32955857  0.53290269  0.40311845     0.36100
C1006       C  0.30613391  0.99591680  0.60160295     0.36000
N1007       N  0.33530112  0.54042585  0.36251656    -0.44200
N1008       N  0.30096905  0.98764231  0.64191905    -0.44200
C1009       C  0.22816362  0.83457479  0.42689965    -0.00600
C1010       C  0.22823663  0.80920116  0.42359244    -0.12500
C1011       C  0.20772512  0.78481623  0.44879815     0.01600
C1012       C  0.18631964  0.78563441  0.47563055    -0.00700
C1013       C  0.18943399  0.81173593  0.48578462    -0.12500
C1014       C  0.20991610  0.83602695  0.46236128     0.01500
H1015       H  0.24356095  0.80813153  0.40029787     0.14500
H1016       H  0.17388053  0.81271264  0.50878060     0.14500
C1017       C  0.21015838  0.86151288  0.47499915     0.36100
C1018       C  0.20996531  0.76000103  0.44879000     0.36000
N1019       N  0.20965747  0.88139461  0.48641183    -0.44200
N1020       N  0.21287009  0.74070840  0.45009099    -0.44200
C1021       C  0.10024544  0.70720514  0.30889348    -0.00600
C1022       C  0.11495537  0.73305340  0.28383114    -0.12500
C1023       C  0.11462931  0.73444159  0.23232616     0.01600
C1024       C  0.09889674  0.70946938  0.20430632    -0.00700
C1025       C  0.08448656  0.68352749  0.22923693    -0.12500
C1026       C  0.08522805  0.68211314  0.28091320     0.01500
H1027       H  0.12668147  0.75252179  0.30451654     0.14500
H1028       H  0.07308193  0.66415031  0.20820780     0.14500
C1029       C  0.07101984  0.65453513  0.30366353     0.36100
C1030       C  0.13205172  0.76177158  0.20977168     0.36000
N1031       N  0.05972678  0.63240680  0.32177557    -0.44200
N1032       N  0.14627900  0.78359585  0.19167222    -0.44200
C1033       C  0.47964461  0.63134815  0.64008214    -0.00600
C1034       C  0.48768769  0.61446633  0.61455076    -0.12500
C1035       C  0.01582082  0.62783595  0.59513124     0.01600
C1036       C  0.03463425  0.65724749  0.59561326    -0.00700
C1037       C  0.02771624  0.67399537  0.62443762    -0.12500
C1038       C  0.49993049  0.66020986  0.64656316     0.01500
H1039       H  0.47264487  0.59213307  0.61011139     0.14500
H1040       H  0.04203486  0.69661313  0.62552749     0.14500
C1041       C  0.49326587  0.67875928  0.67259830     0.36100
C1042       C  0.02253919  0.60913273  0.56966381     0.36000
N1043       N  0.48797854  0.69368270  0.69346136    -0.44200
N1044       N  0.02797108  0.59417126  0.54931344    -0.44200
C1045       C  0.27108666  0.69618064  0.88305096    -0.00600
C1046       C  0.29584507  0.70784232  0.85553208    -0.12500
C1047       C  0.32150691  0.72850550  0.87572125     0.01600
C1048       C  0.32255087  0.73878270  0.92425091    -0.00700
C1049       C  0.29701264  0.72967044  0.94923466    -0.12500
C1050       C  0.27134743  0.70810782  0.92920925     0.01500
H1051       H  0.29567839  0.69841772  0.82026045     0.14500
H1052       H  0.29736162  0.73757390  0.98604247     0.14500
C1053       C  0.24592820  0.69680560  0.95816672     0.36100
C1054       C  0.34630978  0.73677749  0.84632640     0.36000
N1055       N  0.22538566  0.68767527  0.98095436    -0.44200
N1056       N  0.36536343  0.74228051  0.82119144    -0.44200
C1057       C  0.27691986  0.61179473  0.77808762    -0.00600
C1058       C  0.29923309  0.63760292  0.76077092    -0.12500
C1059       C  0.32180313  0.63890327  0.73482483     0.01600
C1060       C  0.32220697  0.61403791  0.72547506    -0.00700
C1061       C  0.29936694  0.58809484  0.74114846    -0.12500
C1062       C  0.27703330  0.58683477  0.76798655     0.01500
H1063       H  0.29921249  0.65685942  0.76811747     0.14500
H1064       H  0.29902759  0.56880065  0.73249493     0.14500
C1065       C  0.25394934  0.55967811  0.78326432     0.36100
C1066       C  0.34352215  0.66580025  0.71588379     0.36000
N1067       N  0.23531687  0.53799754  0.79549168    -0.44200
N1068       N  0.36061658  0.68738696  0.70024920    -0.44200
C1069       C  0.13941956  0.63091457  0.87045023    -0.00600
C1070       C  0.15053241  0.65988779  0.86202854    -0.12500
C1071       C  0.13877338  0.67444771  0.88492171     0.01600
C1072       C  0.11552282  0.66002859  0.91738283    -0.00700
C1073       C  0.10286053  0.63067161  0.92162315    -0.12500
C1074       C  0.11426522  0.61612251  0.89849083     0.01500
H1075       H  0.16964125  0.67163134  0.84045245     0.14500
H1076       H  0.08456103  0.61907155  0.94519917     0.14500
C1077       C  0.10018071  0.58602052  0.90616988     0.36100
C1078       C  0.15231443  0.70445062  0.87723573     0.36000
N1079       N  0.08893051  0.56193780  0.91257548    -0.44200
N1080       N  0.16314654  0.72847497  0.87056539    -0.44200
C1081       C  0.19243636  0.52863293  0.96213854    -0.00600
C1082       C  0.19716265  0.53636950  0.01262830    -0.12500
C1083       C  0.18421911  0.01629488  0.05204825     0.01600
C1084       C  0.17263346  0.98774412  0.04008648    -0.00700
C1085       C  0.16890096  0.47966399  0.98703133    -0.12500
C1086       C  0.17849254  0.49997631  0.94944561     0.01500
H1087       H  0.20762331  0.55842280  0.02289030     0.14500
H1088       H  0.16290417  0.95809050  0.98025375     0.14500
C1089       C  0.17315840  0.49088814  0.89842834     0.36100
C1090       C  0.18448080  0.02517594  0.10234445     0.36000
N1091       N  0.16879048  0.48354105  0.85758271    -0.44200
N1092       N  0.18422524  0.03190884  0.14274360    -0.44200
C1093       C  0.12008517  0.97199961  0.25526618    -0.00600
C1094       C  0.10613604  0.98725988  0.25266503    -0.12500
C1095       C  0.11782364  0.51703849  0.26432327     0.01600
C1096       C  0.14236471  0.52783373  0.29454351    -0.00700
C1097       C  0.15221735  0.50960471  0.30747198    -0.12500
C1098       C  0.14493116  0.98292128  0.28447579     0.01500
H1099       H  0.08673535  0.97895356  0.23125834     0.14500
H1100       H  0.17060104  0.51719474  0.33137515     0.14500
C1101       C  0.15998604  0.96809664  0.28977365     0.36100
C1102       C  0.10474766  0.53330745  0.25228645     0.36000
N1103       N  0.17210069  0.95626954  0.29476325    -0.44200
N1104       N  0.09425819  0.54627305  0.24234526    -0.44200
C1105       C  0.19536171  0.61085185  0.03124069    -0.00600
C1106       C  0.21844917  0.63415236  0.05384251    -0.12500
C1107       C  0.21997778  0.63734198  0.10484731     0.01600
C1108       C  0.19807573  0.61686484  0.13443927    -0.00700
C1109       C  0.17396554  0.59468424  0.11227160    -0.12500
C1110       C  0.17235698  0.59139646  0.06088694     0.01500
H1111       H  0.23601865  0.64960114  0.03185829     0.14500
H1112       H  0.15681880  0.57940002  0.13527123     0.14500
C1113       C  0.14732698  0.56739935  0.04050033     0.36100
C1114       C  0.24425274  0.66200094  0.12557332     0.36000
N1115       N  0.12721361  0.54814437  0.02439436    -0.44200
N1116       N  0.26376011  0.68182331  0.14177913    -0.44200
C1117       C  0.19013213  0.68454481  0.21859125    -0.00600
C1118       C  0.20672522  0.69814563  0.17632151    -0.12500
C1119       C  0.19543959  0.70505996  0.13542091     0.01600
C1120       C  0.16707124  0.69782504  0.13617361    -0.00700
C1121       C  0.15118343  0.68585807  0.17908921    -0.12500
C1122       C  0.16245240  0.67982110  0.22036951     0.01500
H1123       H  0.22814429  0.70231992  0.17420779     0.14500
H1124       H  0.12962613  0.68104265  0.18065245     0.14500
C1125       C  0.14455599  0.66789294  0.26318064     0.36100
C1126       C  0.21299145  0.71906175  0.09308315     0.36000
N1127       N  0.13033140  0.65820861  0.29754772    -0.44200
N1128       N  0.22706370  0.73046954  0.05920757    -0.44200
C1129       C  0.16058625  0.63285661  0.42264188    -0.00600
C1130       C  0.16605317  0.65941369  0.40744076    -0.12500
C1131       C  0.15280303  0.67221579  0.42976194     0.01600
C1132       C  0.13465761  0.65927016  0.47043549    -0.00700
C1133       C  0.13027880  0.63325434  0.48787095    -0.12500
C1134       C  0.14295471  0.61984215  0.46387086     0.01500
H1135       H  0.17923647  0.66936717  0.37528923     0.14500
H1136       H  0.11552638  0.62256430  0.51778861     0.14500
C1137       C  0.13619427  0.59213776  0.47980671     0.36100
C1138       C  0.15582467  0.69718976  0.40639139     0.36000
N1139       N  0.13075917  0.56987530  0.49246701    -0.44200
N1140       N  0.15831171  0.71696801  0.38664459    -0.44200
C1141       C  0.09515790  0.82689219  0.61319279    -0.00600
C1142       C  0.09503829  0.80499630  0.64040294    -0.12500
C1143       C  0.09572670  0.78286533  0.61662522     0.01600
C1144       C  0.09603271  0.78205567  0.56440669    -0.00700
C1145       C  0.09517558  0.80349555  0.53727669    -0.12500
C1146       C  0.09495831  0.82583316  0.56104766     0.01500
H1147       H  0.09521557  0.80557001  0.68057416     0.14500
H1148       H  0.09532357  0.80319850  0.49710500     0.14500
C1149       C  0.09401752  0.84707592  0.53104159     0.36100
C1150       C  0.09570088  0.76116314  0.64673110     0.36000
N1151       N  0.09323762  0.86408492  0.50699491    -0.44200
N1152       N  0.09569419  0.74381255  0.67099108    -0.44200
C1153       C  0.02121194  0.84599829  0.79928141    -0.00600
C1154       C  0.01647577  0.82182079  0.82534078    -0.12500
C1155       C  0.00134600  0.81381192  0.86985613     0.01600
C1156       C  0.49206329  0.82848097  0.89225945    -0.00700
C1157       C  0.49809594  0.85343255  0.86811775    -0.12500
C1158       C  0.51173741  0.86092617  0.82248745     0.01500
H1159       H  0.02473408  0.80921648  0.81095032     0.14500
H1160       H  0.49003891  0.86612452  0.88294283     0.14500
C1161       C  0.51467684  0.88578580  0.79884780     0.36100
C1162       C  0.99602251  0.78821839  0.89416278     0.36000
N1163       N  0.51640189  0.90566902  0.78083904    -0.44200
N1164       N  0.99190422  0.76773738  0.91360865    -0.44200
C1165       C  0.13385940  0.99329363  0.69317062    -0.00600
C1166       C  0.11473494  0.50262496  0.70962068    -0.12500
C1167       C  0.12611765  0.52821076  0.73490606     0.01600
C1168       C  0.15554891  0.54508738  0.74180269    -0.00700
C1169       C  0.17315734  0.53690849  0.71919280    -0.12500
C1170       C  0.16331428  0.00981290  0.70101721     0.01500
H1171       H  0.09194515  0.48908315  0.70746603     0.14500
H1172       H  0.19583446  0.54966130  0.72461781     0.14500
C1173       C  0.18149758  0.99879454  0.69098683     0.36100
C1174       C  0.10702343  0.53570350  0.75667553     0.36000
N1175       N  0.19611172  0.98995587  0.68333045    -0.44200
N1176       N  0.09177175  0.54165219  0.77445652    -0.44200
C1177       C  0.10463509  0.91003404  0.86428507    -0.00600
C1178       C  0.09045096  0.92152893  0.88875416    -0.12500
C1179       C  0.08828867  0.92049887  0.94026962     0.01600
C1180       C  0.10022233  0.90740635  0.96813932    -0.00700
C1181       C  0.11463484  0.89626707  0.94371477    -0.12500
C1182       C  0.11735913  0.89779424  0.89259828     0.01500
H1183       H  0.08049183  0.93088887  0.86758622     0.14500
H1184       H  0.12470976  0.88697049  0.96475807     0.14500
C1185       C  0.13300179  0.88606596  0.87103554     0.36100
C1186       C  0.07341459  0.93268009  0.96312435     0.36000
N1187       N  0.14556422  0.87665516  0.85405269    -0.44200
N1188       N  0.06161853  0.94257358  0.98137615    -0.44200
C1189       C  0.42005342  0.74360465  0.56755010    -0.00600
C1190       C  0.42454135  0.74343260  0.61896534    -0.12500
C1191       C  0.42556977  0.72099017  0.64150917     0.01600
C1192       C  0.42156465  0.69824661  0.61229367    -0.00700
C1193       C  0.42108713  0.70053777  0.56039971    -0.12500
C1194       C  0.42021767  0.72295500  0.53783395     0.01500
H1195       H  0.42464827  0.75948958  0.64198752     0.14500
H1196       H  0.41814931  0.68316402  0.53777264     0.14500
C1197       C  0.41567020  0.72229064  0.48497014     0.36100
C1198       C  0.42765248  0.72029291  0.69477410     0.36000
N1199       N  0.41190479  0.72174232  0.44263861    -0.44200
N1200       N  0.42939487  0.71985773  0.73749822    -0.44200
C1201       C  0.32212221  0.72951645  0.45462935    -0.00600
C1202       C  0.32575036  0.72990926  0.40315728    -0.12500
C1203       C  0.30531557  0.70873301  0.37276299     0.01600
C1204       C  0.28051423  0.68618441  0.39370971    -0.00700
C1205       C  0.27693336  0.68542811  0.44519548    -0.12500
C1206       C  0.29727358  0.70688673  0.47567463     0.01500
H1207       H  0.34470459  0.74692306  0.38639067     0.14500
H1208       H  0.25798442  0.66821127  0.46159573     0.14500
C1209       C  0.29230960  0.70459394  0.52840072     0.36100
C1210       C  0.31094336  0.71023071  0.32030790     0.36000
N1211       N  0.28825921  0.70272664  0.57063930    -0.44200
N1212       N  0.31554992  0.71149980  0.27832451    -0.44200
C1213       C  0.48450731  0.86663575  0.53269399    -0.00600
C1214       C  0.49635712  0.89381355  0.55263450    -0.12500
C1215       C  0.02271869  0.90815790  0.57686739     0.01600
C1216       C  0.03892343  0.89498780  0.57682895    -0.00700
C1217       C  0.02875571  0.86983241  0.55001502    -0.12500
C1218       C  0.00145913  0.85609937  0.52889922     0.01500
H1219       H  0.48368144  0.90364147  0.55473345     0.14500
H1220       H  0.04099896  0.85951933  0.54951936     0.14500
C1221       C  0.99098487  0.82891274  0.50626649     0.36100
C1222       C  0.03288903  0.93508225  0.60048445     0.36000
N1223       N  0.98265471  0.80714408  0.48803268    -0.44200
N1224       N  0.04110101  0.95664544  0.61944696    -0.44200
C1225       C  0.40493905  0.81350392  0.70713272    -0.00600
C1226       C  0.38255129  0.80941406  0.73714938    -0.12500
C1227       C  0.38574024  0.81134160  0.78836433     0.01600
C1228       C  0.41158050  0.81720730  0.80935093    -0.00700
C1229       C  0.43432353  0.82242684  0.77924044    -0.12500
C1230       C  0.43120036  0.82073617  0.72792064     0.01500
H1231       H  0.36247867  0.80426516  0.72055096     0.14500
H1232       H  0.45398760  0.82645656  0.79587959     0.14500
C1233       C  0.45479455  0.82590565  0.69747098     0.36100
C1234       C  0.36242070  0.80715725  0.81872809     0.36000
N1235       N  0.47371859  0.83013222  0.67303919    -0.44200
N1236       N  0.34389207  0.80398575  0.84323675    -0.44200
C1237       C  0.38304865  0.85680120  0.42182647    -0.00600
C1238       C  0.35794128  0.84110089  0.39443196    -0.12500
C1239       C  0.34384934  0.85408011  0.37389325     0.01600
C1240       C  0.35490082  0.88325932  0.38111030    -0.00700
C1241       C  0.38159135  0.89925266  0.40350818    -0.12500
C1242       C  0.39575014  0.88643762  0.42338157     0.01500
H1243       H  0.34808134  0.81837871  0.39256825     0.14500
H1244       H  0.39087902  0.92181716  0.40769637     0.14500
C1245       C  0.42271873  0.90414090  0.44744544     0.36100
C1246       C  0.31706444  0.83654751  0.34936848     0.36000
N1247       N  0.44426534  0.91824943  0.46688263    -0.44200
N1248       N  0.29565084  0.82245194  0.32952660    -0.44200
C1249       C  0.22919139  0.91298781  0.77081080    -0.00600
C1250       C  0.22128136  0.90290380  0.72207277    -0.12500
C1251       C  0.19983566  0.90446135  0.69691610     0.01600
C1252       C  0.18580156  0.91644934  0.72024147    -0.00700
C1253       C  0.19497390  0.92843562  0.76759498    -0.12500
C1254       C  0.21666701  0.92694260  0.79290838     0.01500
H1255       H  0.23084538  0.89231751  0.70438549     0.14500
H1256       H  0.18364965  0.93690806  0.78641834     0.14500
C1257       C  0.22368335  0.93731239  0.84300808     0.36100
C1258       C  0.19089623  0.89144924  0.64875165     0.36000
N1259       N  0.22928267  0.94558206  0.88323269    -0.44200
N1260       N  0.18364603  0.88097912  0.61023402    -0.44200
C1261       C  0.17833408  0.78533353  0.95061032    -0.00600
C1262       C  0.20198380  0.78274107  0.94205774    -0.12500
C1263       C  0.22598613  0.80441464  0.91871402     0.01600
C1264       C  0.22673162  0.82946119  0.90507090    -0.00700
C1265       C  0.20350279  0.83238722  0.91525154    -0.12500
C1266       C  0.17937157  0.81057534  0.93760300     0.01500
H1267       H  0.20162235  0.76370603  0.95349761     0.14500
H1268       H  0.20395372  0.85158908  0.90464536     0.14500
C1269       C  0.15669784  0.81536230  0.94912700     0.36100
C1270       C  0.24979291  0.80082826  0.91040634     0.36000
N1271       N  0.13894769  0.81982815  0.95849694    -0.44200
N1272       N  0.26887967  0.79795958  0.90384080    -0.44200
C1273       C  0.32006762  0.83852757  0.72701781    -0.00600
C1274       C  0.29996502  0.81476044  0.70006220    -0.12500
C1275       C  0.30755850  0.80616340  0.65702150     0.01600
C1276       C  0.33522796  0.82238010  0.63886661    -0.00700
C1277       C  0.35527353  0.84568631  0.66615741    -0.12500
C1278       C  0.34841435  0.85306777  0.71079728     0.01500
H1279       H  0.27810496  0.80339437  0.71178578     0.14500
H1280       H  0.37696332  0.85762695  0.65373789     0.14500
C1281       C  0.37111411  0.87604191  0.73809979     0.36100
C1282       C  0.28648037  0.78146065  0.63100487     0.36000
N1283       N  0.38951926  0.89430306  0.75981335    -0.44200
N1284       N  0.26955382  0.76167717  0.61008028    -0.44200
C1285       C  0.35104957  0.89298597  0.92708270    -0.00600
C1286       C  0.33424023  0.86628230  0.94901581    -0.12500
C1287       C  0.34637601  0.85128278  0.96922361     0.01600
C1288       C  0.37600918  0.86330948  0.96887289    -0.00700
C1289       C  0.39280597  0.89092632  0.95055673    -0.12500
C1290       C  0.38071851  0.90562934  0.92956004     0.01500
H1291       H  0.31142578  0.85602556  0.94647356     0.14500
H1292       H  0.41559968  0.90058400  0.95026813     0.14500
C1293       C  0.39930039  0.93325243  0.90892750     0.36100
C1294       C  0.32781535  0.82255189  0.98495250     0.36000
N1295       N  0.41423841  0.95534670  0.89230823    -0.44200
N1296       N  0.31285842  0.79945445  0.99718013    -0.44200
C1297       C  0.35551179  0.99142721  0.80276344    -0.00600
C1298       C  0.34276170  0.50813004  0.81410742    -0.12500
C1299       C  0.35508661  0.53538780  0.79312044     0.01600
C1300       C  0.37903703  0.54554900  0.76243312    -0.00700
C1301       C  0.39247323  0.52983898  0.75952438    -0.12500
C1302       C  0.38171775  0.00370565  0.77800592     0.01500
H1303       H  0.32298507  0.49947305  0.83388365     0.14500
H1304       H  0.41145859  0.53776981  0.73754317     0.14500
C1305       C  0.39672843  0.98881889  0.77214350     0.36100
C1306       C  0.34192136  0.55177804  0.80122177     0.36000
N1307       N  0.40874506  0.97689573  0.76754887    -0.44200
N1308       N  0.33169953  0.56517749  0.80854067    -0.44200
C1309       C  0.29754772  0.90202927  0.64355056    -0.00600
C1310       C  0.32111438  0.92523960  0.62238950    -0.12500
C1311       C  0.32189918  0.93059177  0.57173028     0.01600
C1312       C  0.29892706  0.91182394  0.54110474    -0.00700
C1313       C  0.27556961  0.88833721  0.56248816    -0.12500
C1314       C  0.27451256  0.88344252  0.61324728     0.01500
H1315       H  0.33867904  0.93969759  0.64579317     0.14500
H1316       H  0.25790208  0.87369975  0.53954474     0.10900
C1317       C  0.24972460  0.85887476  0.63272197     0.36100
C1318       C  0.34597538  0.95616879  0.55326300     0.36000
N1319       N  0.22974490  0.83927359  0.64813221    -0.44200
N1320       N  0.36522319  0.97677335  0.53875169    -0.44200
C1321       C  0.31772453  0.59471724  0.23845484    -0.00600
C1322       C  0.29647247  0.59067989  0.20497020    -0.12500
C1323       C  0.27280520  0.59145732  0.22118907     0.01600
C1324       C  0.26938375  0.59456746  0.27220401    -0.00700
C1325       C  0.28876771  0.59484896  0.30615323    -0.12500
C1326       C  0.31312365  0.59555541  0.28977457     0.01500
H1327       H  0.29973642  0.58983519  0.16560242     0.14500
H1328       H  0.28635948  0.59744243  0.34528743     0.14500
C1329       C  0.33358911  0.59896585  0.32682670     0.36100
C1330       C  0.25382956  0.59144068  0.18407648     0.36000
N1331       N  0.34901541  0.60164328  0.35852860    -0.44200
N1332       N  0.23928758  0.59152876  0.15300502    -0.44200
C1333       C  0.40218393  0.72944269  0.05844941    -0.00600
C1334       C  0.37610594  0.70702486  0.07449806    -0.12500
C1335       C  0.37439516  0.68388093  0.09931361     0.01600
C1336       C  0.39922752  0.68335634  0.10970176    -0.00700
C1337       C  0.42533650  0.70581352  0.09399316    -0.12500
C1338       C  0.42697487  0.72851214  0.06768129     0.01500
H1339       H  0.35692574  0.70734161  0.06678934     0.14500
H1340       H  0.44450526  0.70558437  0.10234593     0.14500
C1341       C  0.45443537  0.75096721  0.05212729     0.36100
C1342       C  0.34703431  0.66148495  0.11516063     0.36000
N1343       N  0.47644888  0.76896282  0.03976807    -0.44200
N1344       N  0.32496059  0.64365988  0.12754335    -0.44200
C1345       C  0.45945231  0.62252977  0.07588513    -0.00600
C1346       C  0.46909975  0.64861008  0.05204003    -0.12500
C1347       C  0.49581873  0.66297150  0.02931786     0.01600
C1348       C  0.01427048  0.65082610  0.03104737    -0.00700
C1349       C  0.00340894  0.62379079  0.05152219    -0.12500
C1350       C  0.47538330  0.60924680  0.07114824     0.01500
H1351       H  0.45707125  0.65906250  0.05537689     0.14500
H1352       H  0.01653851  0.61441829  0.05272179     0.14500
C1353       C  0.46582675  0.58170678  0.09211263     0.36100
C1354       C  0.50610976  0.69111883  0.01075887     0.36000
N1355       N  0.45818280  0.55965660  0.10895577    -0.44200
N1356       N  0.51416778  0.71366900  0.99595976    -0.44200
C1357       C  0.48863646  0.67839682  0.28435024    -0.00600
C1358       C  0.49097951  0.70007750  0.31500424    -0.12500
C1359       C  0.00763961  0.70791935  0.36223798     0.01600
C1360       C  0.01991868  0.69220626  0.37761193    -0.00700
C1361       C  0.01794607  0.67110029  0.34650406    -0.12500
C1362       C  0.50310844  0.66444701  0.29865215     0.01500
H1363       H  0.48009149  0.71107491  0.30474681     0.14500
H1364       H  0.02826710  0.65962562  0.35707758     0.14500
C1365       C  0.50438674  0.64393581  0.26764611     0.36100
C1366       C  0.01008630  0.73057702  0.39223106     0.36000
N1367       N  0.50569816  0.62766245  0.24282672    -0.44200
N1368       N  0.01207296  0.74872539  0.41638480    -0.44200
C1369       C  0.37340739  0.52450308  0.20568206    -0.00600
C1370       C  0.38961752  0.51505729  0.23029458    -0.12500
C1371       C  0.37691806  0.48851491  0.25273628     0.01600
C1372       C  0.34740855  0.97150957  0.25176598    -0.00700
C1373       C  0.33103595  0.98045926  0.22617818    -0.12500
C1374       C  0.34429901  0.50519321  0.19793959     0.01500
H1375       H  0.41215984  0.52929491  0.23516487     0.14500
H1376       H  0.30818485  0.96749664  0.22725343     0.14500
C1377       C  0.32663935  0.51323816  0.17151719     0.36100
C1378       C  0.39455300  0.48112411  0.28118209     0.36000
N1379       N  0.31089826  0.02444791  0.16888151    -0.44200
N1380       N  0.40860990  0.47526846  0.30428441    -0.44200
C1381       C  0.41215426  0.61693537  0.37042272    -0.00600
C1382       C  0.40703858  0.59226812  0.39406975    -0.12500
C1383       C  0.40324182  0.58934214  0.44530575     0.01600
C1384       C  0.40477023  0.61173940  0.47357800    -0.00700
C1385       C  0.41181948  0.63707720  0.44971117    -0.12500
C1386       C  0.41563494  0.63988993  0.39864277     0.01500
H1387       H  0.40463529  0.57477511  0.37217216     0.14500
H1388       H  0.41373592  0.65457525  0.47068880     0.14500
C1389       C  0.42298078  0.66656905  0.37615330     0.36100
C1390       C  0.39628456  0.56250024  0.46664574     0.36000
N1391       N  0.42887191  0.68801617  0.35848043    -0.44200
N1392       N  0.39054709  0.54088880  0.48342312    -0.44200
O1393       O  0.89630040  0.12586212  0.29500207    -0.82300
C1394       C  0.93646720  0.11327140  0.11308432     0.97100
O1395       O  0.94095156  0.10521275  0.15435514    -0.71400
O1396       O  0.96263527  0.14701493  0.21729099    -0.75000
Al1397     Al  0.93165779  0.10955031  0.22057496     1.49000
C1398       C  0.96459951  0.16497210  0.24791911     0.92300
O1399       O  0.91404921  0.16894385  0.17933232    -0.81200
O1400       O  0.85074238  0.08932866  0.19135638    -0.74800
Al1401     Al  0.90489789  0.14592139  0.23584567     1.90100
O1402       O  0.88249998  0.13601750  0.13043757    -0.73800
O1403       O  0.87941907  0.06582737  0.15984367    -0.73700
O1404       O  0.91495478  0.11551839  0.10663201    -0.79300
O1405       O  0.90438015  0.07140585  0.22676224    -0.77600
O1406       O  0.90673967  0.11924326  0.20272365    -1.13700
O1407       O  0.92739116  0.11223505  0.29081020    -0.72900
C1408       C  0.91144291  0.11771520  0.31562288     0.97800
C1409       C  0.89877933  0.16180257  0.14103462     0.94200
Al1410     Al  0.88374619  0.10287883  0.15101720     1.55600
O1411       O  0.94341979  0.16720387  0.25589904    -0.77500
C1412       C  0.88614522  0.05547862  0.19570184     0.98400
C1413       C  0.84595173  0.10494185  0.21856000     0.93300
O1414       O  0.86514569  0.13002618  0.22736639    -0.82800
O1415       O  0.77466544  0.38655817  0.71954182    -0.82300
C1416       C  0.83697323  0.40415988  0.89264156     0.97100
O1417       O  0.84845892  0.41395845  0.85114982    -0.71400
O1418       O  0.82693395  0.37125364  0.79077696    -0.75000
Al1419     Al  0.83131800  0.40746258  0.78674406     1.49000
C1420       C  0.80994035  0.35186609  0.76254276     0.92300
O1421       O  0.75759989  0.34493395  0.83731070    -0.81200
O1422       O  0.76899986  0.42255670  0.82153776    -0.74800
Al1423     Al  0.76725800  0.36699961  0.77926464     1.90100
O1424       O  0.75849341  0.37767871  0.88441387    -0.73800
O1425       O  0.82337751  0.44979440  0.84900743    -0.73700
O1426       O  0.81314934  0.40118174  0.90239432    -0.79300
O1427       O  0.84010067  0.44474526  0.77935058    -0.77600
O1428       O  0.79691848  0.39563351  0.80869754    -1.13700
O1429       O  0.82049883  0.40314613  0.71801918    -0.72900
C1430       C  0.79755789  0.39698386  0.69630937     0.97800
C1431       C  0.74949943  0.35192473  0.87522291     0.94200
Al1432     Al  0.79156092  0.41175636  0.86079776     1.55600
O1433       O  0.78567656  0.34813431  0.75564502    -0.77500
C1434       C  0.83877671  0.46044222  0.81118333     0.98400
C1435       C  0.74753497  0.40500677  0.79661073     0.93300
O1436       O  0.74171437  0.37980471  0.79274753    -0.82800
O1437       O  0.89047144  0.28647018  0.63432872    -0.82300
C1438       C  0.89180542  0.34201996  0.45756066     0.97100
O1439       O  0.90075300  0.35324695  0.49940127    -0.71400
O1440       O  0.86285540  0.33027832  0.56898273    -0.75000
Al1441     Al  0.90059195  0.33872380  0.56319288     1.49000
C1442       C  0.84651931  0.31260774  0.60040960     0.92300
O1443       O  0.83986603  0.25867305  0.52626263    -0.81200
O1444       O  0.92054427  0.28063994  0.52012494    -0.74800
Al1445     Al  0.86651133  0.27419047  0.57856245     1.90100
O1446       O  0.87033900  0.26474091  0.46865133    -0.73800
O1447       O  0.94143983  0.33311554  0.49177972    -0.73700
O1448       O  0.88923542  0.31845218  0.44775878    -0.79300
O1449       O  0.93911764  0.35150963  0.56165612    -0.77600
O1450       O  0.89045127  0.30431215  0.54269343    -1.13700
O1451       O  0.90253409  0.33108926  0.63093388    -0.72900
C1452       C  0.89983968  0.31013122  0.65438915     0.97800
C1453       C  0.84520345  0.25224267  0.48468416     0.94200
Al1454     Al  0.90422908  0.29961666  0.48640143     1.55600
O1455       O  0.84551503  0.28951937  0.60591284    -0.77500
C1456       C  0.95345606  0.34966836  0.52775072     0.98400
C1457       C  0.90742537  0.25987472  0.54893705     0.93300
O1458       O  0.88272543  0.25214268  0.56270088    -0.82800
O1459       O  0.61492930  0.39818949  0.78635147    -0.82300
C1460       C  0.56255856  0.40377934  0.61164289     0.97100
O1461       O  0.55953171  0.41132769  0.65403671    -0.71400
O1462       O  0.54185844  0.37337490  0.72431599    -0.75000
Al1463     Al  0.57357271  0.41032094  0.71809882     1.49000
C1464       C  0.54211230  0.35743621  0.75751580     0.92300
O1465       O  0.58505774  0.34678910  0.68141934    -0.81200
O1466       O  0.65193477  0.42495909  0.67721225    -0.74800
Al1467     Al  0.59980094  0.37334481  0.73291449     1.90100
O1468       O  0.61253841  0.37640832  0.62361371    -0.73800
O1469       O  0.62497852  0.45112747  0.65031599    -0.73700
O1470       O  0.58367365  0.40142287  0.60218478    -0.79300
O1471       O  0.60103366  0.44816518  0.71649017    -0.77600
O1472       O  0.59649512  0.39878590  0.69740364    -1.13700
O1473       O  0.58350330  0.41136766  0.78660447    -0.72900
C1474       C  0.60156259  0.40753737  0.80901859     0.97800
C1475       C  0.59708969  0.35133304  0.63991189     0.94200
Al1476     Al  0.61664537  0.41245596  0.64238568     1.55600
O1477       O  0.56362136  0.35539943  0.76307052    -0.77500
C1478       C  0.61932528  0.46275936  0.68499313     0.98400
C1479       C  0.65708555  0.40885483  0.70272901     0.93300
O1480       O  0.63737426  0.38484856  0.71506771    -0.82800
O1481       O  0.72334110  0.12571947  0.20945672    -0.82300
C1482       C  0.66953781  0.11842879  0.38815583     0.97100
O1483       O  0.65706536  0.11046631  0.34688100    -0.71400
O1484       O  0.68198721  0.15224982  0.28419185    -0.75000
Al1485     Al  0.67187587  0.11407068  0.28180466     1.49000
C1486       C  0.69898627  0.16953176  0.25305662     0.92300
O1487       O  0.75168202  0.17088222  0.32213002    -0.81200
O1488       O  0.72972991  0.09056267  0.31659522    -0.74800
Al1489     Al  0.73618275  0.14707724  0.26713521     1.90100
O1490       O  0.74538041  0.13811084  0.37606722    -0.73800
O1491       O  0.67640006  0.06799361  0.34229220    -0.73700
O1492       O  0.69189904  0.11808294  0.39665195    -0.79300
O1493       O  0.65821837  0.07557780  0.27598234    -0.77600
O1494       O  0.70601648  0.12186508  0.30103207    -1.13700
O1495       O  0.67941173  0.11612547  0.21245724    -0.72900
C1496       C  0.70026210  0.11900571  0.18842966     0.97800
C1497       C  0.75778460  0.16384550  0.36277149     0.94200
Al1498     Al  0.71035295  0.10490483  0.35395741     1.55600
O1499       O  0.72138639  0.16968169  0.24411108    -0.77500
C1500       C  0.65965488  0.05866025  0.30536435     0.98400
C1501       C  0.75094634  0.10527047  0.28958671     0.93300
O1502       O  0.75820536  0.13021620  0.27849665    -0.82800
O1503       O  0.72127866  0.11977615  0.95734721    -0.82300
C1504       C  0.66623178  0.06663707  0.78085282     0.97100
O1505       O  0.65539602  0.06037418  0.82344503    -0.71400
O1506       O  0.67948149  0.04655470  0.89276675    -0.75000
Al1507     Al  0.66920513  0.07455406  0.88804054     1.49000
C1508       C  0.69722326  0.04893485  0.92491398     0.92300
O1509       O  0.74751618  0.09715108  0.84917803    -0.81200
O1510       O  0.72790549  0.15750626  0.85033309    -0.74800
Al1511     Al  0.73354695  0.10833306  0.90267907     1.90100
O1512       O  0.74185450  0.12355748  0.79365969    -0.73800
O1513       O  0.67449006  0.12616435  0.82559823    -0.73700
O1514       O  0.68790230  0.09034177  0.77242848    -0.79300
O1515       O  0.65401154  0.09791071  0.88808338    -0.77600
O1516       O  0.70311164  0.10164808  0.86808145    -1.13700
O1517       O  0.67723645  0.08428737  0.95654793    -0.72900
C1518       C  0.69787934  0.10458196  0.97883595     0.97800
C1519       C  0.75344775  0.10974599  0.80775017     0.94200
Al1520     Al  0.70746966  0.12255982  0.81455425     1.55600
O1521       O  0.71898019  0.07243019  0.93208672    -0.77500
C1522       C  0.65660400  0.11733557  0.86031810     0.98400
C1523       C  0.75044438  0.16472299  0.87378147     0.93300
O1524       O  0.75681630  0.14671368  0.88585961    -0.82800
O1525       O  0.61262421  0.23070135  0.38651561    -0.82300
C1526       C  0.55802455  0.17106217  0.55992992     0.97100
O1527       O  0.55506798  0.16036919  0.51751414    -0.71400
O1528       O  0.53916838  0.18342678  0.44884539    -0.75000
Al1529     Al  0.56958175  0.17663049  0.45399872     1.49000
C1530       C  0.54030742  0.20106419  0.41767844     0.92300
O1531       O  0.58622633  0.25353628  0.49371575    -0.81200
O1532       O  0.64982727  0.23927607  0.50288944    -0.74800
Al1533     Al  0.59931152  0.24091877  0.44185428     1.90100
O1534       O  0.61089234  0.24868891  0.55352098    -0.73800
O1535       O  0.61998014  0.18494833  0.52249957    -0.73700
O1536       O  0.57975019  0.19431004  0.57031487    -0.79300
O1537       O  0.59640186  0.16579383  0.45397601    -0.77600
O1538       O  0.59406141  0.21107701  0.47638224    -1.13700
O1539       O  0.57914558  0.18612792  0.38592360    -0.72900
C1540       C  0.59774072  0.20780447  0.36348524     0.97800
C1541       C  0.59715881  0.25976346  0.53642967     0.94200
Al1542     Al  0.61332401  0.21609017  0.53289813     1.55600
O1543       O  0.56281847  0.22425177  0.41216582    -0.77500
C1544       C  0.61526691  0.16968792  0.48456739     0.98400
C1545       C  0.65632078  0.26155129  0.47949403     0.93300
O1546       O  0.63734016  0.26514432  0.46100961    -0.82800
O1547       O  0.77360942  0.40380327  0.46485993    -0.82300
C1548       C  0.83318937  0.44881970  0.28950840     0.97100
O1549       O  0.84381485  0.45479133  0.33258796    -0.71400
O1550       O  0.82399319  0.47387748  0.39969475    -0.75000
Al1551     Al  0.82945379  0.44244811  0.39698213     1.49000
C1552       C  0.80537057  0.47350155  0.42672368     0.92300
O1553       O  0.75489439  0.42783593  0.34661474    -0.81200
O1554       O  0.76625719  0.36181784  0.36849169    -0.74800
Al1555     Al  0.76498319  0.41566329  0.40490074     1.90100
O1556       O  0.75579239  0.39557726  0.30032110    -0.73800
O1557       O  0.81935610  0.38863053  0.33750434    -0.73700
O1558       O  0.81038051  0.42581488  0.28060474    -0.79300
O1559       O  0.84141976  0.41620597  0.39975803    -0.77600
O1560       O  0.79483996  0.41802436  0.37552768    -1.13700
O1561       O  0.81975843  0.43336573  0.46473919    -0.72900
C1562       C  0.79727934  0.41612084  0.48706553     0.97800
C1563       C  0.74721984  0.41263642  0.30818612     0.94200
Al1564     Al  0.78852853  0.39473926  0.32528508     1.55600
O1565       O  0.78179435  0.45170931  0.43030394    -0.77500
C1566       C  0.83747828  0.39653408  0.37168818     0.98400
C1567       C  0.74528343  0.35875714  0.39294549     0.93300
O1568       O  0.73917468  0.37760296  0.38952525    -0.82800
O1569       O  0.60858622  0.23254021  0.12630230    -0.82300
C1570       C  0.60686224  0.17487744  0.95378500     0.97100
O1571       O  0.59858963  0.16403425  0.99628798    -0.71400
O1572       O  0.63685333  0.18750448  0.06685861    -0.75000
Al1573     Al  0.59892398  0.17927757  0.05992597     1.49000
C1574       C  0.65347719  0.20578132  0.09730269     0.92300
O1575       O  0.65942518  0.25671887  0.02055913    -0.81200
O1576       O  0.57917263  0.23789971  0.01358655    -0.74800
Al1577     Al  0.63302273  0.24357193  0.07201479     1.90100
O1578       O  0.62927171  0.25238411  0.96207365    -0.73800
O1579       O  0.55688205  0.18486555  0.98791288    -0.73700
O1580       O  0.60845892  0.19799055  0.94290876    -0.79300
O1581       O  0.56041306  0.16653635  0.05770589    -0.77600
O1582       O  0.60877129  0.21332291  0.03738146    -1.13700
O1583       O  0.59756161  0.18832657  0.12803164    -0.72900
C1584       C  0.60076094  0.21000425  0.14989642     0.97800
C1585       C  0.65441945  0.26336036  0.97861744     0.94200
Al1586     Al  0.59457963  0.21787495  0.98076723     1.55600
O1587       O  0.65328064  0.22818555  0.10280656    -0.77500
C1588       C  0.54545707  0.16841861  0.02439237     0.98400
C1589       C  0.59328990  0.25916737  0.04084841     0.93300
O1590       O  0.61837527  0.26679970  0.05244662    -0.82800
O1591       O  0.60885261  0.39303513  0.04380967    -0.82300
C1592       C  0.61103347  0.44870055  0.21835021     0.97100
O1593       O  0.60278907  0.45162132  0.17613746    -0.71400
O1594       O  0.64106210  0.46684847  0.10660729    -0.75000
Al1595     Al  0.60268948  0.43739741  0.11226105     1.49000
C1596       C  0.65668770  0.46506379  0.07483359     0.92300
O1597       O  0.66166672  0.41840478  0.14841247    -0.81200
O1598       O  0.58047949  0.35727914  0.15566561    -0.74800
Al1599     Al  0.63434020  0.40579254  0.09733443     1.90100
O1600       O  0.63158496  0.39283898  0.20704583    -0.73800
O1601       O  0.56037446  0.38931083  0.18314270    -0.73700
O1602       O  0.61257459  0.42709724  0.22831372    -0.79300
O1603       O  0.56395816  0.41164286  0.11377308    -0.77600
O1604       O  0.61144136  0.41228747  0.13329085    -1.13700
O1605       O  0.60090156  0.42814605  0.04383399    -0.72900
C1606       C  0.60201015  0.40878596  0.02132930     0.97800
C1607       C  0.65667295  0.40690014  0.19054383     0.94200
Al1608     Al  0.59737635  0.39314816  0.18940264     1.55600
O1609       O  0.65520279  0.44192300  0.06772290    -0.77500
C1610       C  0.54905540  0.39515459  0.14762064     0.98400
C1611       C  0.59376441  0.34986009  0.12774593     0.93300
O1612       O  0.61874343  0.36739143  0.11547047    -0.82800
O1613       O  0.89056616  0.12507500  0.54637419    -0.82300
C1614       C  0.88670065  0.06847188  0.72483869     0.97100
O1615       O  0.89138536  0.06340164  0.68174360    -0.71400
O1616       O  0.85331720  0.05166512  0.61285412    -0.75000
Al1617     Al  0.89256302  0.07825409  0.61809264     1.49000
C1618       C  0.83925766  0.05493375  0.57924908     0.92300
O1619       O  0.83874270  0.10353234  0.65250501    -0.81200
O1620       O  0.92063236  0.16081673  0.65976616    -0.74800
Al1621     Al  0.86545057  0.11424298  0.60108921     1.90100
O1622       O  0.86972282  0.12654944  0.71230984    -0.73800
O1623       O  0.93923463  0.12725793  0.68441633    -0.73700
O1624       O  0.88795415  0.09145430  0.73436702    -0.79300
O1625       O  0.93168308  0.10080598  0.61942307    -0.77600
O1626       O  0.88716707  0.10572227  0.63790851    -1.13700
O1627       O  0.89541477  0.08800503  0.54992936    -0.72900
C1628       C  0.89698698  0.10846948  0.52607298     0.97800
C1629       C  0.84451718  0.11417992  0.69537115     0.94200
Al1630     Al  0.90305990  0.12492068  0.69348626     1.55600
O1631       O  0.84251700  0.07876845  0.57154178    -0.77500
C1632       C  0.94847406  0.11901027  0.64950607     0.98400
C1633       C  0.90793987  0.16922537  0.63199477     0.93300
O1634       O  0.88293595  0.15253885  0.61876804    -0.82800
O1635       O  0.89797572  0.28922674  0.88094460    -0.82300
C1636       C  0.93954099  0.34005010  0.06408404     0.97100
O1637       O  0.94538112  0.35257316  0.02281704    -0.71400
O1638       O  0.96665816  0.33354376  0.95839286    -0.75000
Al1639     Al  0.93597697  0.34009416  0.95669434     1.49000
C1640       C  0.96790441  0.31767441  0.92657895     0.92300
O1641       O  0.91816538  0.26233691  0.99222464    -0.81200
O1642       O  0.85389330  0.27613025  0.98010372    -0.74800
Al1643     Al  0.90815691  0.27660774  0.93736617     1.90100
O1644       O  0.88700910  0.26280736  0.04232364    -0.73800
O1645       O  0.88126134  0.32856898  0.01286496    -0.73700
O1646       O  0.91719867  0.31634060  0.06957539    -0.79300
O1647       O  0.90957119  0.35161047  0.95155737    -0.77600
O1648       O  0.91043041  0.30472217  0.97258257    -1.13700
O1649       O  0.93101191  0.33411734  0.88692876    -0.72900
C1650       C  0.91258283  0.31341880  0.86221662     0.97800
C1651       C  0.90311535  0.25355131  0.03062327     0.94200
Al1652     Al  0.88671639  0.29669262  0.02266659     1.55600
O1653       O  0.94608646  0.29483658  0.91565738    -0.77500
C1654       C  0.88940958  0.34704722  0.97895453     0.98400
C1655       C  0.84969097  0.25594057  0.95244591     0.93300
O1656       O  0.86907351  0.25060950  0.94682866    -0.82800
C1657       C  0.51798725  0.38229811  0.14309481    -0.00600
C1658       C  0.50006815  0.35314814  0.15004790    -0.12500
C1659       C  0.97139444  0.33827558  0.13052459     0.01600
C1660       C  0.96131685  0.35345180  0.10364053    -0.00700
C1661       C  0.97772715  0.38298787  0.10328840    -0.12500
C1662       C  0.50660708  0.39789560  0.12215234     0.01500
H1663       H  0.50842515  0.34099803  0.16676984     0.14500
H1664       H  0.96997872  0.39498424  0.08388567     0.14500
C1665       C  0.52336631  0.42815780  0.11663898     0.36100
C1666       C  0.95471750  0.30803501  0.13522626     0.36000
N1667       N  0.53688033  0.45236185  0.11192529    -0.44200
N1668       N  0.94125314  0.28382114  0.13968470    -0.44200
C1669       C  0.58116560  0.32105898  0.10748651    -0.00600
C1670       C  0.57882629  0.31797343  0.05559239    -0.12500
C1671       C  0.57802039  0.29486426  0.03257160     0.01600
C1672       C  0.58135485  0.27552385  0.06155466    -0.00700
C1673       C  0.57996694  0.27667150  0.11347448    -0.12500
C1674       C  0.57897592  0.29882284  0.13650847     0.01500
H1675       H  0.57963190  0.33462355  0.03286143     0.14500
H1676       H  0.58151485  0.26125733  0.13618676     0.14500
C1677       C  0.57780424  0.29938193  0.18982811     0.36100
C1678       C  0.57574605  0.29246002  0.97931822     0.36000
N1679       N  0.57666051  0.29972419  0.23259146    -0.44200
N1680       N  0.57360452  0.29033353  0.93664431    -0.44200
C1681       C  0.68029724  0.40855888  0.21942983    -0.00600
C1682       C  0.70371188  0.43496794  0.23148262    -0.12500
C1683       C  0.72605426  0.43699830  0.26015062     0.01600
C1684       C  0.72557425  0.41225327  0.27518198    -0.00700
C1685       C  0.70290539  0.38597970  0.26062220    -0.12500
C1686       C  0.68034154  0.38398859  0.23325328     0.01500
H1687       H  0.70424603  0.45398120  0.21936463     0.14500
H1688       H  0.70250411  0.36685863  0.27162216     0.14500
C1689       C  0.65820675  0.35656006  0.21752180     0.36100
C1690       C  0.74940170  0.46455633  0.27285820     0.36000
N1691       N  0.64073795  0.33455188  0.20431175    -0.44200
N1692       N  0.76814140  0.48661313  0.28312312    -0.44200
C1693       C  0.81202968  0.49556555  0.46326181    -0.00600
C1694       C  0.80402334  0.48659703  0.51257924    -0.12500
C1695       C  0.81190169  0.00456609  0.55161699     0.01600
C1696       C  0.82475000  0.03338778  0.54091568    -0.00700
C1697       C  0.82890129  0.04250748  0.49093688    -0.12500
C1698       C  0.82249104  0.02346578  0.45214132     0.01500
H1699       H  0.79252154  0.46429674  0.52145445     0.14500
H1700       H  0.83919269  0.06478428  0.48223440     0.14500
C1701       C  0.82908326  0.03355281  0.40174995     0.36100
C1702       C  0.80496331  0.49564800  0.60138554     0.36000
N1703       N  0.83440639  0.04123610  0.36114697    -0.44200
N1704       N  0.79921075  0.48740064  0.64163193    -0.44200
C1705       C  0.72743976  0.33427195  0.42613375    -0.00600
C1706       C  0.72732848  0.30881287  0.42264561    -0.12500
C1707       C  0.70683546  0.28450542  0.44802731     0.01600
C1708       C  0.68557757  0.28547065  0.47506595    -0.00700
C1709       C  0.68885627  0.31162583  0.48530980    -0.12500
C1710       C  0.70940342  0.33586603  0.46187981     0.01500
H1711       H  0.74252298  0.30763471  0.39916099     0.14500
H1712       H  0.67343734  0.31270888  0.50851987     0.14500
C1713       C  0.71002404  0.36147510  0.47502410     0.36100
C1714       C  0.70899982  0.25964719  0.44813344     0.36000
N1715       N  0.70984021  0.38144581  0.48698485    -0.44200
N1716       N  0.71185405  0.24032560  0.44958336    -0.44200
C1717       C  0.59981833  0.20732939  0.30896860    -0.00600
C1718       C  0.61457964  0.23323325  0.28407620    -0.12500
C1719       C  0.61437586  0.23472267  0.23258327     0.01600
C1720       C  0.59869472  0.20980380  0.20443233    -0.00700
C1721       C  0.58423236  0.18381131  0.22919802    -0.12500
C1722       C  0.58488812  0.18229078  0.28085009     0.01500
H1723       H  0.62626259  0.25266308  0.30488052     0.14500
H1724       H  0.57287833  0.16447173  0.20805319     0.14500
C1725       C  0.57070423  0.15466535  0.30342460     0.36100
C1726       C  0.63187932  0.26208505  0.21018986     0.36000
N1727       N  0.55942925  0.13249729  0.32138470    -0.44200
N1728       N  0.64618183  0.28394276  0.19225648    -0.44200
C1729       C  0.97919275  0.13104320  0.64038881    -0.00600
C1730       C  0.98725661  0.11403315  0.61536404    -0.12500
C1731       C  0.51560812  0.12769514  0.59547995     0.01600
C1732       C  0.53434285  0.15711586  0.59579558    -0.00700
C1733       C  0.52745153  0.17387620  0.62462467    -0.12500
C1734       C  0.99943395  0.15993601  0.64650900     0.01500
H1735       H  0.97221665  0.09167955  0.61119581     0.14500
H1736       H  0.54171767  0.19650631  0.62554018     0.14500
C1737       C  0.99269267  0.17861894  0.67187681     0.36100
C1738       C  0.52228934  0.10902228  0.56980952     0.36000
N1739       N  0.98733753  0.19364958  0.69218015    -0.44200
N1740       N  0.52768333  0.09409251  0.54924608    -0.44200
C1741       C  0.77135512  0.19417752  0.88523609    -0.00600
C1742       C  0.79629584  0.20575673  0.85832708    -0.12500
C1743       C  0.82173129  0.22679534  0.87850725     0.01600
C1744       C  0.82239825  0.23773096  0.92635032    -0.00700
C1745       C  0.79667487  0.22839439  0.95086673    -0.12500
C1746       C  0.77124077  0.20630542  0.93098426     0.01500
H1747       H  0.79642945  0.19610868  0.82348945     0.14500
H1748       H  0.79673342  0.23658745  0.98727014     0.14500
C1749       C  0.74572109  0.19476412  0.95971375     0.36100
C1750       C  0.84671612  0.23475666  0.84983574     0.36000
N1751       N  0.72511466  0.18541220  0.98237328    -0.44200
N1752       N  0.86593282  0.23999818  0.82533981    -0.44200
C1753       C  0.77582061  0.11013860  0.77728846    -0.00600
C1754       C  0.79853654  0.13623515  0.76204228    -0.12500
C1755       C  0.82131472  0.13793389  0.73624140     0.01600
C1756       C  0.82151150  0.11318125  0.72482544    -0.00700
C1757       C  0.79832098  0.08697560  0.73855908    -0.12500
C1758       C  0.77577222  0.08529949  0.76534167     0.01500
H1759       H  0.79867053  0.15540809  0.77094524     0.14500
H1760       H  0.79791207  0.06780786  0.72854165     0.14500
C1761       C  0.75237284  0.05790838  0.77871993     0.36100
C1762       C  0.84348703  0.16520387  0.71959850     0.36000
N1763       N  0.73351334  0.03602043  0.78940513    -0.44200
N1764       N  0.86094826  0.18712838  0.70586530    -0.44200
C1765       C  0.63953316  0.13067420  0.87227812    -0.00600
C1766       C  0.65061554  0.15959498  0.86329606    -0.12500
C1767       C  0.63888469  0.17428022  0.88581529     0.01600
C1768       C  0.61568027  0.16003571  0.91841653    -0.00700
C1769       C  0.60307286  0.13071462  0.92327493    -0.12500
C1770       C  0.61446689  0.11604655  0.90059866     0.01500
H1771       H  0.66964922  0.17120480  0.84148484     0.14500
H1772       H  0.58481477  0.11923954  0.94699012     0.14500
C1773       C  0.60043374  0.08600712  0.90903270     0.36100
C1774       C  0.65236655  0.20422787  0.87751353     0.36000
N1775       N  0.58922300  0.06198231  0.91608878    -0.44200
N1776       N  0.66314587  0.22820434  0.87034316    -0.44200
C1777       C  0.69024852  0.02639339  0.96152451    -0.00600
C1778       C  0.69623645  0.03429069  0.01186457    -0.12500
C1779       C  0.68404127  0.51647545  0.05048413     0.01600
C1780       C  0.67240659  0.48791139  0.03861818    -0.00700
C1781       C  0.66484886  0.97752918  0.98707310    -0.12500
C1782       C  0.67460830  0.99767081  0.94925350     0.01500
H1783       H  0.70793760  0.05640489  0.02187861     0.14500
H1784       H  0.66249346  0.45816332  0.97888396     0.14500
C1785       C  0.66768127  0.98835282  0.89850560     0.36100
C1786       C  0.68434255  0.52542766  0.10073963     0.36000
N1787       N  0.66199288  0.98081334  0.85789739    -0.44200
N1788       N  0.68410148  0.53222207  0.14109852    -0.44200
C1789       C  0.61983970  0.47219062  0.25424086    -0.00600
C1790       C  0.60605572  0.48759941  0.25123500    -0.12500
C1791       C  0.61800459  0.01723110  0.26256218     0.01600
C1792       C  0.64219903  0.02783239  0.29367306    -0.00700
C1793       C  0.65159590  0.00934611  0.30755002    -0.12500
C1794       C  0.64447331  0.48291176  0.28397217     0.01500
H1795       H  0.58679270  0.47942708  0.22946352     0.14500
H1796       H  0.66974577  0.01680015  0.33199254     0.14500
C1797       C  0.65930754  0.46788612  0.28973756     0.36100
C1798       C  0.60557594  0.03386549  0.24872455     0.36000
N1799       N  0.67121840  0.45587116  0.29502197    -0.44200
N1800       N  0.59565412  0.04714214  0.23721603    -0.44200
C1801       C  0.69573780  0.10949482  0.03173516    -0.00600
C1802       C  0.71915965  0.13263323  0.05400765    -0.12500
C1803       C  0.72065151  0.13634885  0.10487674     0.01600
C1804       C  0.69838750  0.11654241  0.13469262    -0.00700
C1805       C  0.67410519  0.09442491  0.11281311    -0.12500
C1806       C  0.67254013  0.09060323  0.06157197     0.01500
H1807       H  0.73694397  0.14760787  0.03187554     0.14500
H1808       H  0.65676456  0.07958317  0.13597301     0.14500
C1809       C  0.64734646  0.06662364  0.04157837     0.36100
C1810       C  0.74525214  0.16085694  0.12522322     0.36000
N1811       N  0.62711213  0.04736943  0.02579680    -0.44200
N1812       N  0.76501057  0.18053328  0.14118873    -0.44200
C1813       C  0.68998879  0.18461890  0.21864798    -0.00600
C1814       C  0.70650964  0.19796557  0.17617600    -0.12500
C1815       C  0.69527275  0.20500142  0.13537223     0.01600
C1816       C  0.66704536  0.19820294  0.13648024    -0.00700
C1817       C  0.65123781  0.18645155  0.17954112    -0.12500
C1818       C  0.66242758  0.18019816  0.22066024     0.01500
H1819       H  0.72779309  0.20177018  0.17376018     0.14500
H1820       H  0.62977440  0.18189571  0.18128882     0.14500
C1821       C  0.64450386  0.16825157  0.26343877     0.36100
C1822       C  0.71270557  0.21861378  0.09273039     0.36000
N1823       N  0.63019922  0.15850793  0.29769774    -0.44200
N1824       N  0.72668843  0.22968654  0.05859956    -0.44200
C1825       C  0.65996770  0.13271252  0.42223098    -0.00600
C1826       C  0.66524972  0.15916376  0.40675749    -0.12500
C1827       C  0.65203781  0.17199028  0.42912071     0.01600
C1828       C  0.63408360  0.15917059  0.47006354    -0.00700
C1829       C  0.62989056  0.13326843  0.48776333    -0.12500
C1830       C  0.64256346  0.11984375  0.46377451     0.01500
H1831       H  0.67831725  0.16904557  0.37445634     0.14500
H1832       H  0.61530253  0.12267674  0.51793635     0.14500
C1833       C  0.63605431  0.09228054  0.48011194     0.36100
C1834       C  0.65497393  0.19690375  0.40564719     0.36000
N1835       N  0.63082523  0.07013409  0.49311199    -0.44200
N1836       N  0.65743167  0.21665149  0.38582848    -0.44200
C1837       C  0.59501144  0.32711517  0.61267300    -0.00600
C1838       C  0.59477111  0.30520257  0.64004468    -0.12500
C1839       C  0.59522475  0.28290749  0.61642483     0.01600
C1840       C  0.59542699  0.28195968  0.56422535    -0.00700
C1841       C  0.59464527  0.30339620  0.53693733    -0.12500
C1842       C  0.59465230  0.32589082  0.56054483     0.01500
H1843       H  0.59502370  0.30588064  0.68021064     0.14500
H1844       H  0.59469435  0.30297815  0.49676777     0.14500
C1845       C  0.59377115  0.34712284  0.53040862     0.36100
C1846       C  0.59505016  0.26117000  0.64664975     0.36000
N1847       N  0.59304005  0.36412858  0.50627170    -0.44200
N1848       N  0.59491615  0.24378019  0.67098458    -0.44200
C1849       C  0.52106348  0.34638274  0.79780016    -0.00600
C1850       C  0.51643870  0.32221477  0.82374839    -0.12500
C1851       C  0.50156044  0.31424966  0.86850305     0.01600
C1852       C  0.99146619  0.32875551  0.89126449    -0.00700
C1853       C  0.99903823  0.35466226  0.86926943    -0.12500
C1854       C  0.01302555  0.36265074  0.82398305     0.01500
H1855       H  0.52466527  0.30962575  0.80914953     0.14500
H1856       H  0.99198514  0.36788497  0.88552789     0.14500
C1857       C  0.01801692  0.38888871  0.80299796     0.36100
C1858       C  0.49649420  0.28875205  0.89284072     0.36000
N1859       N  0.02142191  0.40995348  0.78737134    -0.44200
N1860       N  0.49260415  0.26836265  0.91233436    -0.44200
C1861       C  0.63383917  0.49373717  0.69168054    -0.00600
C1862       C  0.61312585  0.00178405  0.71099440    -0.12500
C1863       C  0.62452080  0.02738541  0.73620411     0.01600
C1864       C  0.65400451  0.04456987  0.74203284    -0.00700
C1865       C  0.67157400  0.03675646  0.71817238    -0.12500
C1866       C  0.66333479  0.51042598  0.69889376     0.01500
H1867       H  0.59034929  0.98798579  0.70971252     0.14500
H1868       H  0.69429622  0.04978048  0.72264003     0.14500
C1869       C  0.68161392  0.49965040  0.68785929     0.36100
C1870       C  0.60542861  0.03454802  0.75902286     0.36000
N1871       N  0.69629432  0.49100230  0.67929497    -0.44200
N1872       N  0.59015565  0.04020386  0.77762041    -0.44200
C1873       C  0.60417745  0.41046929  0.86328629    -0.00600
C1874       C  0.58858863  0.42035941  0.88798340    -0.12500
C1875       C  0.58648361  0.41912668  0.93952661     0.01600
C1876       C  0.59990587  0.40747150  0.96714905    -0.00700
C1877       C  0.61566887  0.39791827  0.94257043    -0.12500
C1878       C  0.61832179  0.39964943  0.89144566     0.01500
H1879       H  0.57746714  0.42855747  0.86700879     0.14500
H1880       H  0.62688167  0.38980058  0.96353711     0.14500
C1881       C  0.63545886  0.38966179  0.86973877     0.36100
C1882       C  0.57006751  0.42949232  0.96275420     0.36000
N1883       N  0.64917729  0.38159321  0.85264882    -0.44200
N1884       N  0.55701618  0.43790555  0.98135257    -0.44200
C1885       C  0.91995750  0.24358047  0.56751716    -0.00600
C1886       C  0.92414409  0.24322323  0.61899376    -0.12500
C1887       C  0.92514464  0.22075237  0.64142912     0.01600
C1888       C  0.92127561  0.19812173  0.61204974    -0.00700
C1889       C  0.92113518  0.20061055  0.56017005    -0.12500
C1890       C  0.92044406  0.22313920  0.53769575     0.01500
H1891       H  0.92408580  0.25917115  0.64208393     0.14500
H1892       H  0.91839624  0.18334769  0.53741896     0.14500
C1893       C  0.91650373  0.22285835  0.48470512     0.36100
C1894       C  0.92717453  0.21994901  0.69469331     0.36000
N1895       N  0.91327512  0.22265432  0.44225351    -0.44200
N1896       N  0.92890561  0.21943438  0.73741166    -0.44200
C1897       C  0.82218279  0.22946966  0.45456993    -0.00600
C1898       C  0.82544753  0.23007697  0.40299825    -0.12500
C1899       C  0.80490697  0.20887204  0.37278471     0.01600
C1900       C  0.78032993  0.18614371  0.39402829    -0.00700
C1901       C  0.77719929  0.18513089  0.44564164    -0.12500
C1902       C  0.79770084  0.20654990  0.47595232     0.01500
H1903       H  0.84419183  0.24727399  0.38603968     0.14500
H1904       H  0.75850147  0.16772174  0.46229926     0.14500
C1905       C  0.79338474  0.20386112  0.52886644     0.36100
C1906       C  0.81024013  0.21051056  0.32019634     0.36000
N1907       N  0.78990024  0.20166443  0.57126874    -0.44200
N1908       N  0.81463289  0.21188073  0.27811573    -0.44200
C1909       C  0.98459303  0.36669124  0.53281878    -0.00600
C1910       C  0.99645539  0.39397326  0.55233176    -0.12500
C1911       C  0.52319767  0.40864925  0.57441417     0.01600
C1912       C  0.53925313  0.39533009  0.57509157    -0.00700
C1913       C  0.52898321  0.36995890  0.54894648    -0.12500
C1914       C  0.50168114  0.35616007  0.52791713     0.01500
H1915       H  0.98374820  0.40377295  0.55424990     0.14500
H1916       H  0.54114249  0.35955286  0.54896437     0.14500
C1917       C  0.49112107  0.32880661  0.50590689     0.36100
C1918       C  0.53364705  0.43588974  0.59696007     0.36000
N1919       N  0.48274670  0.30691340  0.48815097    -0.44200
N1920       N  0.54212761  0.45773505  0.61498551    -0.44200
C1921       C  0.90413764  0.31264254  0.70731778    -0.00600
C1922       C  0.88038021  0.30461395  0.73669043    -0.12500
C1923       C  0.88303975  0.30682425  0.78793300     0.01600
C1924       C  0.90972709  0.31666666  0.80964460    -0.00700
C1925       C  0.93370972  0.32613814  0.78009036    -0.12500
C1926       C  0.93109833  0.32435773  0.72871445     0.01500
H1927       H  0.85980028  0.29664942  0.71949207     0.14500
H1928       H  0.95418518  0.33365891  0.79717864     0.14500
C1929       C  0.95599239  0.33386966  0.69884430     0.36100
C1930       C  0.85842994  0.29940930  0.81746257     0.36000
N1931       N  0.97593490  0.34154869  0.67486745    -0.44200
N1932       N  0.83882459  0.29372518  0.84119265    -0.44200
C1933       C  0.88250758  0.35650754  0.42234913    -0.00600
C1934       C  0.85732821  0.34062330  0.39519866    -0.12500
C1935       C  0.84314628  0.35344802  0.37436540     0.01600
C1936       C  0.85421837  0.38267553  0.38091425    -0.00700
C1937       C  0.88094171  0.39880678  0.40316589    -0.12500
C1938       C  0.89513575  0.38613135  0.42348137     0.01500
H1939       H  0.84749906  0.31789404  0.39373673     0.14500
H1940       H  0.89022248  0.42139348  0.40693936     0.14500
C1941       C  0.92208149  0.40397996  0.44749984     0.36100
C1942       C  0.81626068  0.33573565  0.35027440     0.36000
N1943       N  0.94360930  0.41821389  0.46690465    -0.44200
N1944       N  0.79476057  0.32147120  0.33081255    -0.44200
C1945       C  0.72910739  0.41292377  0.76914110    -0.00600
C1946       C  0.72041939  0.40188045  0.72112484    -0.12500
C1947       C  0.69905542  0.40357099  0.69598848     0.01600
C1948       C  0.68584146  0.41659312  0.71863902    -0.00700
C1949       C  0.69587300  0.42959260  0.76505245    -0.12500
C1950       C  0.71755839  0.42804347  0.79028471     0.01500
H1951       H  0.72934449  0.39052321  0.70403505     0.14500
H1952       H  0.68523579  0.43896447  0.78333199     0.14500
C1953       C  0.72563676  0.43972189  0.83942466     0.36100
C1954       C  0.68938743  0.38975830  0.64857788     0.36000
N1955       N  0.73213600  0.44907356  0.87885550    -0.44200
N1956       N  0.68156327  0.37868250  0.61064314    -0.44200
C1957       C  0.67833553  0.28567346  0.95084835    -0.00600
C1958       C  0.70174704  0.28285067  0.94130219    -0.12500
C1959       C  0.72569245  0.30450486  0.91781805     0.01600
C1960       C  0.72662313  0.32975480  0.90501964    -0.00700
C1961       C  0.70366053  0.33292036  0.91633011    -0.12500
C1962       C  0.67958448  0.31113155  0.93884829     0.01500
H1963       H  0.70123731  0.26364864  0.95205322     0.14500
H1964       H  0.70424837  0.35227741  0.90643660     0.14500
C1965       C  0.65718710  0.31612663  0.95154302     0.36100
C1966       C  0.74924426  0.30065769  0.90842519     0.36000
N1967       N  0.63967199  0.32076230  0.96188651    -0.44200
N1968       N  0.76813228  0.29759481  0.90095553    -0.44200
C1969       C  0.81989275  0.33785655  0.72860814    -0.00600
C1970       C  0.79975222  0.31453153  0.70077355    -0.12500
C1971       C  0.80749507  0.30602383  0.65780879     0.01600
C1972       C  0.83541656  0.32188723  0.64068464    -0.00700
C1973       C  0.85557206  0.34445912  0.66927595    -0.12500
C1974       C  0.84847392  0.35171962  0.71380873     0.01500
H1975       H  0.77773720  0.30355767  0.71157279     0.14500
H1976       H  0.87742730  0.35604976  0.65773218     0.14500
C1977       C  0.87114879  0.37397212  0.74237393     0.36100
C1978       C  0.78632374  0.28184674  0.63077884     0.36000
N1979       N  0.88949283  0.39165384  0.76514249    -0.44200
N1980       N  0.76931211  0.26246663  0.60909530    -0.44200
C1981       C  0.85055430  0.39330468  0.92701127    -0.00600
C1982       C  0.83367959  0.36640833  0.94818902    -0.12500
C1983       C  0.84579105  0.35141926  0.96845285     0.01600
C1984       C  0.87544463  0.36366338  0.96897815    -0.00700
C1985       C  0.89227542  0.39145659  0.95146291    -0.12500
C1986       C  0.88021184  0.40615489  0.93035925     0.01500
H1987       H  0.81087889  0.35600834  0.94490921     0.14500
H1988       H  0.91508620  0.40124927  0.95182776     0.14500
C1989       C  0.89879941  0.43398698  0.91051641     0.36100
C1990       C  0.82724936  0.32249156  0.98314915     0.36000
N1991       N  0.91373751  0.45625755  0.89455464    -0.44200
N1992       N  0.81230586  0.29923534  0.99450928    -0.44200
C1993       C  0.85540020  0.49140709  0.80214309    -0.00600
C1994       C  0.84282319  0.00863942  0.81457084    -0.12500
C1995       C  0.85495464  0.03576988  0.79321503     0.01600
C1996       C  0.87890224  0.04590610  0.76254202    -0.00700
C1997       C  0.89262172  0.03045829  0.76018322    -0.12500
C1998       C  0.88174680  0.50371252  0.77789414     0.01500
H1999       H  0.82298419  0.99989086  0.83417775     0.14500
H2000       H  0.91163232  0.03843657  0.73825703     0.14500
C2001       C  0.89671907  0.48877475  0.77225540     0.36100
C2002       C  0.84155507  0.05199444  0.80078966     0.36000
N2003       N  0.90871047  0.47681284  0.76787449    -0.44200
N2004       N  0.83113940  0.06526116  0.80765484    -0.44200
C2005       C  0.79738516  0.40130623  0.64282670    -0.00600
C2006       C  0.82077480  0.42465685  0.62161130    -0.12500
C2007       C  0.82139943  0.43001955  0.57099073     0.01600
C2008       C  0.79847081  0.41110625  0.54042746    -0.00700
C2009       C  0.77531907  0.38743093  0.56182336    -0.12500
C2010       C  0.77440360  0.38253243  0.61258625     0.01500
H2011       H  0.83828139  0.43925924  0.64497159     0.14500
H2012       H  0.75770481  0.37268070  0.53890117     0.10900
C2013       C  0.74979676  0.35782227  0.63216970     0.36100
C2014       C  0.84522363  0.45579932  0.55252006     0.36000
N2015       N  0.72995938  0.33811069  0.64767884    -0.44200
N2016       N  0.86425469  0.47656240  0.53797238    -0.44200
C2017       C  0.81754770  0.09522491  0.23842692    -0.00600
C2018       C  0.79614414  0.09095545  0.20511246    -0.12500
C2019       C  0.77241393  0.09154195  0.22153359     0.01600
C2020       C  0.76915656  0.09479781  0.27254642    -0.00700
C2021       C  0.78874364  0.09538969  0.30633464    -0.12500
C2022       C  0.81311415  0.09621963  0.28977812     0.01500
H2023       H  0.79931121  0.09006876  0.16570931     0.14500
H2024       H  0.78645262  0.09811524  0.34546431     0.14500
C2025       C  0.83372168  0.09991091  0.32672838     0.36100
C2026       C  0.75314445  0.09110063  0.18461390     0.36000
N2027       N  0.84918698  0.10280417  0.35849753    -0.44200
N2028       N  0.73833565  0.09078375  0.15367125    -0.44200
C2029       C  0.90266521  0.23057869  0.05967862    -0.00600
C2030       C  0.87659903  0.20858182  0.07677358    -0.12500
C2031       C  0.87467628  0.18528166  0.10134231     0.01600
C2032       C  0.89928327  0.18410392  0.11019899    -0.00700
C2033       C  0.92539698  0.20617809  0.09363148    -0.12500
C2034       C  0.92723810  0.22909736  0.06776940     0.01500
H2035       H  0.85757002  0.20934502  0.07010133     0.14500
H2036       H  0.94441170  0.20548794  0.10100527     0.14500
C2037       C  0.95469383  0.25119522  0.05145233     0.36100
C2038       C  0.84739140  0.16344361  0.11867117     0.36000
N2039       N  0.97669613  0.26890806  0.03844092    -0.44200
N2040       N  0.82540702  0.14608389  0.13236805    -0.44200
C2041       C  0.95847581  0.12239585  0.07433110    -0.00600
C2042       C  0.96827444  0.14852704  0.05060180    -0.12500
C2043       C  0.99498785  0.16274736  0.02787715     0.01600
C2044       C  0.51432376  0.15111611  0.03089813    -0.00700
C2045       C  0.50340404  0.12399987  0.05103183    -0.12500
C2046       C  0.97412417  0.10884811  0.06921326     0.01500
H2047       H  0.95640004  0.15913132  0.05409149     0.14500
H2048       H  0.51652261  0.11461340  0.05210270     0.14500
C2049       C  0.96422489  0.08113569  0.08968864     0.36100
C2050       C  0.00543826  0.19091526  0.00928973     0.36000
N2051       N  0.95627198  0.05893147  0.10609623    -0.44200
N2052       N  0.01360970  0.21347252  0.99441967    -0.44200
C2053       C  0.98818364  0.17791792  0.28439084    -0.00600
C2054       C  0.99032087  0.19930962  0.31559834    -0.12500
C2055       C  0.50703532  0.20778136  0.36209430     0.01600
C2056       C  0.51930162  0.19204397  0.37739336    -0.00700
C2057       C  0.51752817  0.17112091  0.34602634    -0.12500
C2058       C  0.00274097  0.16398809  0.29826918     0.01500
H2059       H  0.97935957  0.21028412  0.30569568     0.14500
H2060       H  0.52788370  0.15966783  0.35650837     0.14500
C2061       C  0.00416310  0.14373485  0.26676722     0.36100
C2062       C  0.50937461  0.23033079  0.39227144     0.36000
N2063       N  0.00559141  0.12766365  0.24156840    -0.44200
N2064       N  0.51129034  0.24840109  0.41656479    -0.44200
C2065       C  0.87289128  0.02457323  0.20357811    -0.00600
C2066       C  0.88929803  0.01511340  0.22742485    -0.12500
C2067       C  0.87677121  0.98858868  0.24989088     0.01600
C2068       C  0.84712588  0.47122038  0.25139562    -0.00700
C2069       C  0.83086896  0.48021384  0.22551962    -0.12500
C2070       C  0.84374063  0.00526554  0.19639480     0.01500
H2071       H  0.91187429  0.02935495  0.23180390     0.14500
H2072       H  0.80801444  0.46721429  0.22617134     0.14500
C2073       C  0.82589422  0.01332188  0.17066553     0.36100
C2074       C  0.89460916  0.98120706  0.27769550     0.36000
N2075       N  0.81100232  0.52418321  0.16723512    -0.44200
N2076       N  0.90884576  0.97536997  0.30027298    -0.44200
C2077       C  0.91168541  0.11665951  0.36973014    -0.00600
C2078       C  0.90683439  0.09210680  0.39349037    -0.12500
C2079       C  0.90311803  0.08923185  0.44476896     0.01600
C2080       C  0.90450369  0.11157957  0.47299645    -0.00700
C2081       C  0.91124808  0.13680016  0.44900127    -0.12500
C2082       C  0.91494654  0.13955392  0.39790307     0.01500
H2083       H  0.90456284  0.07464778  0.37165737     0.14500
H2084       H  0.91298780  0.15424937  0.46991085     0.14500
C2085       C  0.92186633  0.16609614  0.37532645     0.36100
C2086       C  0.89637006  0.06247383  0.46620678     0.36000
N2087       N  0.92738723  0.18741655  0.35755164    -0.44200
N2088       N  0.89079791  0.04092528  0.48305659    -0.44200
O2089       O  0.89786483  0.62844609  0.29569129    -0.82300
C2090       C  0.93847397  0.61390149  0.11605360     0.97100
O2091       O  0.94263668  0.60603932  0.15777330    -0.71400
O2092       O  0.96426075  0.64840630  0.21953625    -0.75000
Al2093     Al  0.93313586  0.61101122  0.22334541     1.49000
C2094       C  0.96630084  0.66659841  0.24972728     0.92300
O2095       O  0.91622842  0.67049027  0.17876664    -0.81200
O2096       O  0.85253049  0.59114035  0.19252428    -0.74800
Al2097     Al  0.90675228  0.64796249  0.23606245     1.90100
O2098       O  0.88472580  0.63717040  0.13040462    -0.73800
O2099       O  0.88077402  0.56696145  0.16320202    -0.73700
O2100       O  0.91698657  0.61610408  0.10869235    -0.79300
O2101       O  0.90560346  0.57282014  0.23042760    -0.77600
O2102       O  0.90846905  0.62081353  0.20426366    -1.13700
O2103       O  0.92867294  0.61440044  0.29292934    -0.72900
C2104       C  0.91287852  0.62036437  0.31701155     0.97800
C2105       C  0.90103327  0.66303999  0.14035340     0.94200
Al2106     Al  0.88560002  0.60408453  0.15261816     1.55600
O2107       O  0.94528350  0.66926175  0.25667218    -0.77500
C2108       C  0.88711022  0.55675953  0.19981724     0.98400
C2109       C  0.84776898  0.60698099  0.21911579     0.93300
O2110       O  0.86697151  0.63218561  0.22709140    -0.82800
O2111       O  0.77448378  0.88935991  0.72020237    -0.82300
C2112       C  0.83507440  0.90316656  0.89445767     0.97100
O2113       O  0.84681943  0.91335524  0.85326975    -0.71400
O2114       O  0.82512494  0.87147441  0.79121761    -0.75000
Al2115     Al  0.83017744  0.90796588  0.78847125     1.49000
C2116       C  0.80825763  0.85260787  0.76205397     0.92300
O2117       O  0.75572657  0.84541270  0.83532876    -0.81200
O2118       O  0.76847281  0.92371011  0.82436554    -0.74800
Al2119     Al  0.76618768  0.86857156  0.77871674     1.90100
O2120       O  0.75685106  0.87747621  0.88470677    -0.73800
O2121       O  0.82250170  0.94985503  0.85275561    -0.73700
O2122       O  0.81122716  0.90016680  0.90397917    -0.79300
O2123       O  0.83940953  0.94542547  0.78273435    -0.77600
O2124       O  0.79575461  0.89632902  0.80983784    -1.13700
O2125       O  0.81997327  0.90465773  0.71910991    -0.72900
C2126       C  0.79731625  0.89920026  0.69698532     0.97800
C2127       C  0.74782861  0.85187252  0.87410155     0.94200
Al2128     Al  0.79029193  0.91177995  0.86285263     1.55600
O2129       O  0.78434684  0.84958657  0.75412273    -0.77500
C2130       C  0.83805993  0.96083156  0.81517965     0.98400
C2131       C  0.74724517  0.90692306  0.79825499     0.93300
O2132       O  0.74097561  0.88166014  0.79299870    -0.82800
O2133       O  0.88938964  0.78734912  0.63502302    -0.82300
C2134       C  0.89094474  0.84256913  0.45766262     0.97100
O2135       O  0.89945121  0.85385867  0.49959486    -0.71400
O2136       O  0.86169856  0.83096228  0.56964260    -0.75000
Al2137     Al  0.89951624  0.83955303  0.56360671     1.49000
C2138       C  0.84537143  0.81324685  0.60104517     0.92300
O2139       O  0.83889061  0.75952432  0.52694629    -0.81200
O2140       O  0.91958610  0.78122688  0.52176264    -0.74800
Al2141     Al  0.86548440  0.77498771  0.57932119     1.90100
O2142       O  0.86939281  0.76536997  0.46963213    -0.73800
O2143       O  0.94083958  0.83368384  0.49318818    -0.73700
O2144       O  0.88875050  0.81913055  0.44819654    -0.79300
O2145       O  0.93814718  0.85263226  0.56203256    -0.77600
O2146       O  0.88950726  0.80509757  0.54342615    -1.13700
O2147       O  0.90164000  0.83204748  0.63136062    -0.72900
C2148       C  0.89887638  0.81107627  0.65491416     0.97800
C2149       C  0.84417935  0.75298888  0.48543362     0.94200
Al2150     Al  0.90346161  0.80025323  0.48749137     1.55600
O2151       O  0.84448377  0.79024045  0.60657612    -0.77500
C2152       C  0.95272077  0.85052327  0.52888724     0.98400
C2153       C  0.90634941  0.76047980  0.55055658     0.93300
O2154       O  0.88158156  0.75277072  0.56381861    -0.82800
O2155       O  0.61544272  0.89791158  0.78779959    -0.82300
C2156       C  0.56166638  0.90173126  0.61320645     0.97100
O2157       O  0.55804675  0.90855447  0.65583725    -0.71400
O2158       O  0.54156339  0.87083286  0.72686893    -0.75000
Al2159     Al  0.57259416  0.90818483  0.71979999     1.49000
C2160       C  0.54251301  0.85542627  0.76045069     0.92300
O2161       O  0.58605713  0.84607731  0.68329408    -0.81200
O2162       O  0.65143153  0.92513123  0.67781564    -0.74800
Al2163     Al  0.60054675  0.87281482  0.73450732     1.90100
O2164       O  0.61267054  0.87579852  0.62478848    -0.73800
O2165       O  0.62329968  0.94998988  0.65132637    -0.73700
O2166       O  0.58305432  0.89992143  0.60371427    -0.79300
O2167       O  0.59919241  0.94618755  0.71768100    -0.77600
O2168       O  0.59616737  0.89759081  0.69887071    -1.13700
O2169       O  0.58301452  0.90977078  0.78803408    -0.72900
C2170       C  0.60142641  0.90651701  0.81051244     0.97800
C2171       C  0.59760408  0.85068382  0.64130236     0.94200
Al2172     Al  0.61601686  0.91161684  0.64354056     1.55600
O2173       O  0.56444325  0.85406213  0.76563119    -0.77500
C2174       C  0.61713289  0.96120948  0.68600672     0.98400
C2175       C  0.65735882  0.90968950  0.70347074     0.93300
O2176       O  0.63829175  0.88534056  0.71578206    -0.82800
O2177       O  0.72355204  0.62463095  0.21068401    -0.82300
C2178       C  0.66899453  0.61697098  0.38840916     0.97100
O2179       O  0.65643892  0.60802463  0.34740477    -0.71400
O2180       O  0.68045786  0.64957289  0.28405000    -0.75000
Al2181     Al  0.67147468  0.61176356  0.28242960     1.49000
C2182       C  0.69722062  0.66698641  0.25285203     0.92300
O2183       O  0.75100416  0.67050911  0.32297531    -0.81200
O2184       O  0.73080800  0.59059430  0.31890074    -0.74800
Al2185     Al  0.73586104  0.64628383  0.26818537     1.90100
O2186       O  0.74532898  0.63816060  0.37739138    -0.73800
O2187       O  0.67741252  0.56734079  0.34485479    -0.73700
O2188       O  0.69175623  0.61748397  0.39740814    -0.79300
O2189       O  0.65878187  0.57342028  0.27746798    -0.77600
O2190       O  0.70593197  0.62070801  0.30212566    -1.13700
O2191       O  0.67923902  0.61377520  0.21307405    -0.72900
C2192       C  0.70044979  0.61738999  0.18925079     0.97800
C2193       C  0.75720290  0.66379595  0.36388061     0.94200
Al2194     Al  0.71078403  0.60453034  0.35565194     1.55600
O2195       O  0.72011571  0.66798200  0.24454016    -0.77500
C2196       C  0.66071360  0.55727112  0.30804112     0.98400
C2197       C  0.75187838  0.60550653  0.29163863     0.93300
O2198       O  0.75860643  0.63027362  0.28019996    -0.82800
O2199       O  0.72189947  0.62130740  0.95726513    -0.82300
C2200       C  0.66852079  0.56800909  0.77998897     0.97100
O2201       O  0.65736038  0.56120060  0.82229215    -0.71400
O2202       O  0.68151216  0.54791221  0.89249609    -0.75000
Al2203     Al  0.67052068  0.57545995  0.88720481     1.49000
C2204       C  0.69921553  0.55072902  0.92508045     0.92300
O2205       O  0.74909235  0.59921387  0.84983527    -0.81200
O2206       O  0.72877301  0.65903904  0.85055150    -0.74800
Al2207     Al  0.73472728  0.61013368  0.90295417     1.90100
O2208       O  0.74335624  0.62545097  0.79398544    -0.73800
O2209       O  0.67546416  0.62728187  0.82542783    -0.73700
O2210       O  0.68970378  0.59210256  0.77204129    -0.79300
O2211       O  0.65450623  0.59813976  0.88664923    -0.77600
O2212       O  0.70434114  0.60307613  0.86787531    -1.13700
O2213       O  0.67809551  0.58529540  0.95590365    -0.72900
C2214       C  0.69850514  0.60569009  0.97855008     0.97800
C2215       C  0.75496615  0.61167221  0.80827399     0.94200
Al2216     Al  0.70872481  0.62412612  0.81453097     1.55600
O2217       O  0.72057854  0.57443407  0.93252772    -0.77500
C2218       C  0.65714293  0.61779894  0.85946806     0.98400
C2219       C  0.75134510  0.66633472  0.87392062     0.93300
O2220       O  0.75775404  0.64840268  0.88616959    -0.82800
O2221       O  0.61112236  0.73032642  0.38490538    -0.82300
C2222       C  0.55696704  0.66983813  0.55765098     0.97100
O2223       O  0.55420735  0.65935107  0.51512698    -0.71400
O2224       O  0.53798395  0.68245142  0.44733710    -0.75000
Al2225     Al  0.56852075  0.67586979  0.45186818     1.49000
C2226       C  0.53896353  0.70010375  0.41639564     0.92300
O2227       O  0.58483501  0.75257183  0.49307202    -0.81200
O2228       O  0.64868559  0.73842359  0.50005589    -0.74800
Al2229     Al  0.59786253  0.74020848  0.44062818     1.90100
O2230       O  0.60993054  0.74770931  0.55200292    -0.73800
O2231       O  0.61892530  0.68399348  0.51990344    -0.73700
O2232       O  0.57863826  0.69312440  0.56835243    -0.79300
O2233       O  0.59546547  0.66521822  0.45117112    -0.77600
O2234       O  0.59285960  0.71026484  0.47455042    -1.13700
O2235       O  0.57794759  0.68564280  0.38407836    -0.72900
C2236       C  0.59642238  0.70742712  0.36182317     0.97800
C2237       C  0.59605225  0.75877772  0.53557912     0.94200
Al2238     Al  0.61227061  0.71513284  0.53074590     1.55600
O2239       O  0.56130541  0.72347772  0.41125361    -0.77500
C2240       C  0.61426364  0.66891176  0.48173972     0.98400
C2241       C  0.65504900  0.76068756  0.47663932     0.93300
O2242       O  0.63594131  0.76447101  0.45940018    -0.82800
O2243       O  0.77352412  0.90326282  0.46360611    -0.82300
C2244       C  0.83273521  0.94899822  0.28762231     0.97100
O2245       O  0.84288518  0.95559585  0.33093226    -0.71400
O2246       O  0.82261830  0.97410199  0.39840922    -0.75000
Al2247     Al  0.82882671  0.94309610  0.39534828     1.49000
C2248       C  0.80399454  0.97320266  0.42615989     0.92300
O2249       O  0.75386837  0.92761500  0.34691740    -0.81200
O2250       O  0.76548927  0.86188179  0.36632226    -0.74800
Al2251     Al  0.76433882  0.91532633  0.40427301     1.90100
O2252       O  0.75542134  0.89641773  0.29867147    -0.73800
O2253       O  0.81861425  0.88880644  0.33672494    -0.73700
O2254       O  0.81007235  0.92586949  0.27895173    -0.79300
O2255       O  0.84150860  0.91735305  0.39755304    -0.77600
O2256       O  0.79424233  0.91823002  0.37414093    -1.13700
O2257       O  0.81942367  0.93386258  0.46340072    -0.72900
C2258       C  0.79721754  0.91605751  0.48585049     0.97800
C2259       C  0.74647526  0.91311004  0.30765405     0.94200
Al2260     Al  0.78796420  0.89503111  0.32375128     1.55600
O2261       O  0.78079384  0.95107317  0.43036017    -0.77500
C2262       C  0.83716288  0.89722631  0.37027801     0.98400
C2263       C  0.74443037  0.85856481  0.39069943     0.93300
O2264       O  0.73849429  0.87750825  0.38818603    -0.82800
O2265       O  0.60929653  0.73196612  0.12510199    -0.82300
C2266       C  0.60533117  0.67359516  0.95275043     0.97100
O2267       O  0.59668389  0.66249699  0.99501089    -0.71400
O2268       O  0.63487853  0.68496706  0.06558921    -0.75000
Al2269     Al  0.59740488  0.67785605  0.05885360     1.49000
C2270       C  0.65195612  0.70300647  0.09581705     0.92300
O2271       O  0.65919915  0.75448369  0.01835569    -0.81200
O2272       O  0.57941087  0.73792452  0.01422265    -0.74800
Al2273     Al  0.63321567  0.74217435  0.07051943     1.90100
O2274       O  0.62878443  0.75127729  0.96138489    -0.73800
O2275       O  0.55588393  0.68467720  0.98750261    -0.73700
O2276       O  0.60703214  0.69679570  0.94205031    -0.79300
O2277       O  0.55905632  0.66587301  0.05692103    -0.77600
O2278       O  0.60806604  0.71212837  0.03642170    -1.13700
O2279       O  0.59646138  0.68723460  0.12689965    -0.72900
C2280       C  0.60055768  0.70928833  0.14866313     0.97800
C2281       C  0.65402548  0.76173625  0.97712426     0.94200
Al2282     Al  0.59387412  0.71719243  0.98032889     1.55600
O2283       O  0.65277170  0.72593137  0.10103266    -0.77500
C2284       C  0.54427195  0.66810867  0.02373057     0.98400
C2285       C  0.59428071  0.75915554  0.04130549     0.93300
O2286       O  0.61943476  0.76627708  0.05136656    -0.82800
O2287       O  0.60664569  0.89050545  0.04578911    -0.82300
C2288       C  0.60836301  0.94844596  0.21752731     0.97100
O2289       O  0.59984299  0.95035262  0.17492136    -0.71400
O2290       O  0.63798022  0.96519041  0.10529949    -0.75000
Al2291     Al  0.59974328  0.93530029  0.11202062     1.49000
C2292       C  0.65377180  0.96317603  0.07419849     0.92300
O2293       O  0.65976505  0.91805994  0.14976320    -0.81200
O2294       O  0.57920431  0.85617417  0.15906094    -0.74800
Al2295     Al  0.63230827  0.90443607  0.09911171     1.90100
O2296       O  0.63017736  0.89326523  0.20959831    -0.73800
O2297       O  0.55831714  0.88791019  0.18491818    -0.73700
O2298       O  0.61032196  0.92719990  0.22889214    -0.79300
O2299       O  0.56104836  0.90910035  0.11453534    -0.77600
O2300       O  0.60918151  0.91095150  0.13448995    -1.13700
O2301       O  0.59783550  0.92504701  0.04423962    -0.72900
C2302       C  0.59932426  0.90567369  0.02258945     0.97800
C2303       C  0.65507940  0.90717069  0.19236991     0.94200
Al2304     Al  0.59558490  0.89258407  0.19141578     1.55600
O2305       O  0.65251750  0.94009638  0.06800970    -0.77500
C2306       C  0.54657144  0.89303449  0.14920527     0.98400
C2307       C  0.59283092  0.84885072  0.13171028     0.93300
O2308       O  0.61761155  0.86659771  0.11907755    -0.82800
O2309       O  0.89190139  0.62706459  0.54771192    -0.82300
C2310       C  0.88832857  0.56948052  0.72411025     0.97100
O2311       O  0.89383541  0.56518218  0.68108916    -0.71400
O2312       O  0.85571072  0.55307771  0.61234024    -0.75000
Al2313     Al  0.89481005  0.58028869  0.61795292     1.49000
C2314       C  0.84149295  0.55618936  0.57886509     0.92300
O2315       O  0.83971926  0.60388396  0.65339054    -0.81200
O2316       O  0.92152638  0.66215195  0.66108152    -0.74800
Al2317     Al  0.86660518  0.61534796  0.60204864     1.90100
O2318       O  0.87063661  0.62729707  0.71306828    -0.73800
O2319       O  0.94070154  0.62886647  0.68563526    -0.73700
O2320       O  0.88906344  0.59216177  0.73433986    -0.79300
O2321       O  0.93386669  0.60341386  0.61952961    -0.77600
O2322       O  0.88867109  0.60714029  0.63847604    -1.13700
O2323       O  0.89761047  0.59052452  0.55029644    -0.72900
C2324       C  0.89892481  0.61102981  0.52706824     0.97800
C2325       C  0.84544165  0.61479526  0.69606658     0.94200
Al2326     Al  0.90420724  0.62605178  0.69435705     1.55600
O2327       O  0.84426713  0.57987736  0.57156809    -0.77500
C2328       C  0.95033999  0.62121720  0.65043054     0.98400
C2329       C  0.90851385  0.67040551  0.63370149     0.93300
O2330       O  0.88350837  0.65350247  0.62066064    -0.82800
O2331       O  0.89809343  0.78991521  0.88162315    -0.82300
C2332       C  0.94051554  0.84115907  0.06428825     0.97100
O2333       O  0.94575404  0.85385735  0.02318465    -0.71400
O2334       O  0.96714170  0.83567213  0.95742404    -0.75000
Al2335     Al  0.93587793  0.84129453  0.95697282     1.49000
C2336       C  0.96848759  0.81976733  0.92584731     0.92300
O2337       O  0.92003568  0.76410488  0.99229214    -0.81200
O2338       O  0.85468322  0.77639327  0.98172007    -0.74800
Al2339     Al  0.90914741  0.77786542  0.93781618     1.90100
O2340       O  0.88868900  0.76376950  0.04291467    -0.73800
O2341       O  0.88121025  0.82873559  0.01467187    -0.73700
O2342       O  0.91833671  0.81733937  0.07002921    -0.79300
O2343       O  0.90884661  0.85205810  0.95285100    -0.77600
O2344       O  0.91103674  0.80576856  0.97318248    -1.13700
O2345       O  0.93027016  0.83511749  0.88725640    -0.72900
C2346       C  0.91199445  0.81416707  0.86277594     0.97800
C2347       C  0.90502321  0.75486797  0.03066573     0.94200
Al2348     Al  0.88758764  0.79733502  0.02379342     1.55600
O2349       O  0.94685968  0.79670460  0.91534778    -0.77500
C2350       C  0.88872991  0.84710633  0.98067164     0.98400
C2351       C  0.85073604  0.75633221  0.95396273     0.93300
O2352       O  0.87032128  0.75131024  0.94828614    -0.82800
C2353       C  0.51547716  0.87985463  0.14563554    -0.00600
C2354       C  0.49795968  0.85059148  0.15171376    -0.12500
C2355       C  0.97233203  0.83902643  0.13082008     0.01600
C2356       C  0.96269686  0.85444424  0.10338060    -0.00700
C2357       C  0.97944497  0.88395393  0.10300707    -0.12500
C2358       C  0.50364566  0.89535417  0.12624033     0.01500
H2359       H  0.50663510  0.83852898  0.16759190     0.14500
H2360       H  0.97208608  0.89616051  0.08318296     0.14500
C2361       C  0.51993360  0.92571744  0.12259567     0.36100
C2362       C  0.95544477  0.80877731  0.13519889     0.36000
N2363       N  0.53304162  0.95002640  0.11955738    -0.44200
N2364       N  0.94184807  0.78455028  0.13931845    -0.44200
C2365       C  0.58104941  0.81993124  0.11249424    -0.00600
C2366       C  0.57650006  0.81595430  0.06094541    -0.12500
C2367       C  0.57709418  0.79379031  0.03679240     0.01600
C2368       C  0.58307159  0.77571960  0.06433020    -0.00700
C2369       C  0.58427500  0.77779483  0.11635755    -0.12500
C2370       C  0.58309840  0.79953391  0.14053846     0.01500
H2371       H  0.57489156  0.83158173  0.03896193     0.14500
H2372       H  0.58817648  0.76358017  0.13808003     0.14500
C2373       C  0.58700736  0.80219736  0.19358734     0.36100
C2374       C  0.57402435  0.79157713  0.98359255     0.36000
N2375       N  0.59016964  0.80433861  0.23611581    -0.44200
N2376       N  0.57151623  0.78983953  0.94092243    -0.44200
C2377       C  0.67885741  0.90904250  0.22059659    -0.00600
C2378       C  0.69766965  0.93409794  0.24503044    -0.12500
C2379       C  0.72053622  0.93642345  0.27226591     0.01600
C2380       C  0.72493380  0.91334476  0.27468370    -0.00700
C2381       C  0.70684586  0.88886034  0.24763935    -0.12500
C2382       C  0.68404194  0.88663990  0.22059629     0.01500
H2383       H  0.69448589  0.95186807  0.24275688     0.14500
H2384       H  0.71010513  0.87110902  0.24841830     0.14500
C2385       C  0.66688405  0.86165419  0.19147456     0.36100
C2386       C  0.73943818  0.96291669  0.29621162     0.36000
N2387       N  0.65344177  0.84190537  0.16733677    -0.44200
N2388       N  0.75460177  0.98419288  0.31525475    -0.44200
C2389       C  0.81040841  0.99484983  0.46326740    -0.00600
C2390       C  0.80433929  0.98557020  0.51279775    -0.12500
C2391       C  0.81214182  0.50590149  0.55113429     0.01600
C2392       C  0.82742779  0.53475996  0.54023155    -0.00700
C2393       C  0.83379215  0.54375133  0.49043084    -0.12500
C2394       C  0.82693560  0.52436536  0.45208453     0.01500
H2395       H  0.79473956  0.96335605  0.52147891     0.14500
H2396       H  0.84584040  0.56604712  0.48175394     0.14500
C2397       C  0.83578453  0.53430053  0.40212893     0.36100
C2398       C  0.80698692  0.99403695  0.60189436     0.36000
N2399       N  0.84292864  0.54200187  0.36199177    -0.44200
N2400       N  0.80312943  0.98555508  0.64213613    -0.44200
C2401       C  0.72629217  0.83367293  0.42281591    -0.00600
C2402       C  0.72558204  0.80803133  0.41730778    -0.12500
C2403       C  0.70498138  0.78349540  0.44198737     0.01600
C2404       C  0.68432613  0.78447816  0.47101008    -0.00700
C2405       C  0.68803092  0.81067321  0.48257660    -0.12500
C2406       C  0.70851661  0.83505614  0.45936604     0.01500
H2407       H  0.74036606  0.80689319  0.39265953     0.14500
H2408       H  0.67295929  0.81173103  0.50678642     0.14500
C2409       C  0.70925326  0.86060675  0.47340286     0.36100
C2410       C  0.70644492  0.75831227  0.43886777     0.36000
N2411       N  0.70915453  0.88053674  0.48593542    -0.44200
N2412       N  0.70903883  0.73884835  0.43740726    -0.44200
C2413       C  0.59871416  0.70694895  0.30748448    -0.00600
C2414       C  0.61315750  0.73285554  0.28261218    -0.12500
C2415       C  0.61320648  0.73427868  0.23115934     0.01600
C2416       C  0.59821972  0.70922016  0.20306000    -0.00700
C2417       C  0.58397413  0.68324311  0.22788439    -0.12500
C2418       C  0.58431289  0.68182590  0.27950335     0.01500
H2419       H  0.62432059  0.75234201  0.30340897     0.14500
H2420       H  0.57299541  0.66382942  0.20685795     0.14500
C2421       C  0.57023284  0.65422979  0.30218816     0.36100
C2422       C  0.63001044  0.76182406  0.20898646     0.36000
N2423       N  0.55900057  0.63208215  0.32022531    -0.44200
N2424       N  0.64369326  0.78393549  0.19153924    -0.44200
C2425       C  0.98114602  0.63334600  0.64204351    -0.00600
C2426       C  0.98950216  0.61625025  0.61814487    -0.12500
C2427       C  0.51388699  0.62617741  0.59109265     0.01600
C2428       C  0.53307193  0.65552042  0.59314472    -0.00700
C2429       C  0.52642082  0.67197465  0.62335695    -0.12500
C2430       C  0.00120526  0.66232803  0.64752704     0.01500
H2431       H  0.97463544  0.59381317  0.61468360     0.14500
H2432       H  0.54093414  0.69452980  0.62545664     0.14500
C2433       C  0.99426137  0.68098677  0.67242793     0.36100
C2434       C  0.51992808  0.60768667  0.56319999     0.36000
N2435       N  0.98875214  0.69597376  0.69247564    -0.44200
N2436       N  0.52472802  0.59289528  0.54070983    -0.44200
C2437       C  0.77233991  0.69573920  0.88514196    -0.00600
C2438       C  0.79749638  0.70667393  0.85900768    -0.12500
C2439       C  0.82304566  0.72684045  0.88013610     0.01600
C2440       C  0.82357737  0.73809753  0.92761163    -0.00700
C2441       C  0.79777441  0.72950766  0.95125708    -0.12500
C2442       C  0.77225241  0.70786945  0.93089343     0.01500
H2443       H  0.79762216  0.69685980  0.82435667     0.14500
H2444       H  0.79777574  0.73781469  0.98751929     0.14500
C2445       C  0.74671647  0.69642940  0.95956179     0.36100
C2446       C  0.84817309  0.73352101  0.85291530     0.36000
N2447       N  0.72614092  0.68704026  0.98231719    -0.44200
N2448       N  0.86760280  0.73783321  0.82987982    -0.44200
C2449       C  0.77713896  0.61172930  0.77772599    -0.00600
C2450       C  0.79943372  0.63757217  0.76057306    -0.12500
C2451       C  0.82209045  0.63896812  0.73484233     0.01600
C2452       C  0.82247478  0.61412891  0.72510339    -0.00700
C2453       C  0.79961546  0.58813903  0.74050171    -0.12500
C2454       C  0.77735460  0.58681321  0.76765789     0.01500
H2455       H  0.79941084  0.65680834  0.76812198     0.14500
H2456       H  0.79929497  0.56887593  0.73167514     0.14500
C2457       C  0.75466104  0.55966352  0.78388502     0.36100
C2458       C  0.84397859  0.66599900  0.71676842     0.36000
N2459       N  0.73642950  0.53798989  0.79710101    -0.44200
N2460       N  0.86117133  0.68776888  0.70198073    -0.44200
C2461       C  0.63963437  0.63069064  0.87143891    -0.00600
C2462       C  0.65052086  0.65964370  0.86333469    -0.12500
C2463       C  0.63828224  0.67385785  0.88580820     0.01600
C2464       C  0.61472148  0.65913116  0.91753978    -0.00700
C2465       C  0.60240704  0.62979868  0.92170643    -0.12500
C2466       C  0.61429578  0.61557816  0.89893111     0.01500
H2467       H  0.66977322  0.67163990  0.84222269     0.14500
H2468       H  0.58394346  0.61795295  0.94481646     0.14500
C2469       C  0.60040164  0.58545210  0.90613407     0.36100
C2470       C  0.65163366  0.70385693  0.87839760     0.36000
N2471       N  0.58929916  0.56134137  0.91206857    -0.44200
N2472       N  0.66231303  0.72788009  0.87191472    -0.44200
C2473       C  0.69236309  0.52867691  0.96249980    -0.00600
C2474       C  0.69455701  0.53661314  0.01262848    -0.12500
C2475       C  0.68538278  0.01408926  0.04971684     0.01600
C2476       C  0.66927146  0.98549355  0.03730778    -0.00700
C2477       C  0.67185690  0.48018583  0.98865669    -0.12500
C2478       C  0.68110947  0.50022075  0.95056246     0.01500
H2479       H  0.70297430  0.55853836  0.02211157     0.14500
H2480       H  0.65228420  0.95544821  0.97728870     0.14500
C2481       C  0.67846461  0.49109141  0.89978281     0.36100
C2482       C  0.69051426  0.02293956  0.10083864     0.36000
N2483       N  0.67630605  0.48372205  0.85910998    -0.44200
N2484       N  0.69428521  0.02948379  0.14210131    -0.44200
C2485       C  0.61710401  0.97283536  0.25174836    -0.00600
C2486       C  0.60591056  0.99024503  0.24228798    -0.12500
C2487       C  0.61775101  0.51431861  0.27251962     0.01600
C2488       C  0.64397992  0.52641972  0.29789124    -0.00700
C2489       C  0.65629896  0.50983278  0.30553351    -0.12500
C2490       C  0.63916798  0.98199760  0.28716666     0.01500
H2491       H  0.58833920  0.98330475  0.21657052     0.14500
H2492       H  0.67633488  0.51873157  0.32506317     0.14500
C2493       C  0.65032765  0.96441174  0.30151926     0.36100
C2494       C  0.60290897  0.52935423  0.26553181     0.36000
N2495       N  0.65899592  0.95014913  0.31372311    -0.44200
N2496       N  0.59099713  0.54134556  0.25960722    -0.44200
C2497       C  0.69628445  0.61000413  0.03178477    -0.00600
C2498       C  0.71993177  0.63248346  0.05491366    -0.12500
C2499       C  0.72153624  0.63525104  0.10602827     0.01600
C2500       C  0.69895783  0.61536232  0.13529933    -0.00700
C2501       C  0.67449336  0.59391739  0.11259595    -0.12500
C2502       C  0.67295615  0.59087991  0.06114106     0.01500
H2503       H  0.73785656  0.64762090  0.03321631     0.14500
H2504       H  0.65693310  0.57897200  0.13524137     0.14500
C2505       C  0.64764038  0.56739443  0.04036658     0.36100
C2506       C  0.74664624  0.65889156  0.12712050     0.36000
N2507       N  0.62734378  0.54849400  0.02394087    -0.44200
N2508       N  0.76685846  0.67781917  0.14369424    -0.44200
C2509       C  0.68759202  0.68127379  0.21779691    -0.00600
C2510       C  0.70467099  0.69575502  0.17649153    -0.12500
C2511       C  0.69364257  0.70277429  0.13538487     0.01600
C2512       C  0.66506227  0.69480215  0.13486333    -0.00700
C2513       C  0.64844422  0.68150495  0.17651228    -0.12500
C2514       C  0.65937795  0.67521306  0.21800909     0.01500
H2515       H  0.72634430  0.70056767  0.17523229     0.14500
H2516       H  0.62659175  0.67589996  0.17689816     0.14500
C2517       C  0.64056815  0.66153736  0.25918892     0.36100
C2518       C  0.71163063  0.71738857  0.09382762     0.36000
N2519       N  0.62557423  0.65038699  0.29215361    -0.44200
N2520       N  0.72601627  0.72917464  0.06048053    -0.44200
C2521       C  0.65905101  0.63145866  0.42117527    -0.00600
C2522       C  0.66353898  0.65729612  0.40374726    -0.12500
C2523       C  0.65008345  0.67013758  0.42505485     0.01600
C2524       C  0.63291081  0.65818697  0.46717777    -0.00700
C2525       C  0.62948551  0.63292493  0.48676468    -0.12500
C2526       C  0.64219112  0.61929564  0.46355647     0.01500
H2527       H  0.67621582  0.66665696  0.37088872     0.14500
H2528       H  0.61543701  0.62291524  0.51782350     0.14500
C2529       C  0.63618349  0.59215367  0.48146360     0.36100
C2530       C  0.65214544  0.69417185  0.39958220     0.36000
N2531       N  0.63131445  0.57030291  0.49556954    -0.44200
N2532       N  0.65404599  0.71324383  0.37811572    -0.44200
C2533       C  0.59518819  0.82642392  0.61352144    -0.00600
C2534       C  0.59499998  0.80436839  0.64034660    -0.12500
C2535       C  0.59485703  0.78189850  0.61615570     0.01600
C2536       C  0.59454179  0.78096928  0.56392501    -0.00700
C2537       C  0.59355004  0.80246328  0.53721041    -0.12500
C2538       C  0.59399896  0.82505921  0.56137937     0.01500
H2539       H  0.59566874  0.80501271  0.68051581     0.14500
H2540       H  0.59305886  0.80199614  0.49703383     0.14500
C2541       C  0.59255169  0.84616638  0.53182259     0.36100
C2542       C  0.59447441  0.75987839  0.64583602     0.36000
N2543       N  0.59131187  0.86303170  0.50811411    -0.44200
N2544       N  0.59411303  0.74221524  0.66968228    -0.44200
C2545       C  0.52169248  0.84427312  0.80129604    -0.00600
C2546       C  0.51712304  0.82006470  0.82711596    -0.12500
C2547       C  0.50185496  0.81173305  0.87157976     0.01600
C2548       C  0.99185725  0.83086129  0.89032001    -0.00700
C2549       C  0.99783031  0.85566666  0.86570706    -0.12500
C2550       C  0.01133941  0.86282902  0.81995815     0.01500
H2551       H  0.52557465  0.80766960  0.81254840     0.14500
H2552       H  0.98974194  0.86841199  0.88018430     0.14500
C2553       C  0.01411520  0.88742547  0.79547557     0.36100
C2554       C  0.49692039  0.78627859  0.89589776     0.36000
N2555       N  0.01568336  0.90702614  0.77654014    -0.44200
N2556       N  0.49318147  0.76597314  0.91551814    -0.44200
C2557       C  0.63049293  0.99215026  0.69265824    -0.00600
C2558       C  0.61691369  0.50494356  0.70472729    -0.12500
C2559       C  0.62834319  0.53068450  0.72963614     0.01600
C2560       C  0.65739117  0.54617006  0.74089207    -0.00700
C2561       C  0.67491081  0.53664913  0.72286727    -0.12500
C2562       C  0.66005150  0.01055888  0.69400102     0.01500
H2563       H  0.59421063  0.49231487  0.69938793     0.14500
H2564       H  0.69727006  0.54833374  0.73185280     0.14500
C2565       C  0.67892680  0.00178361  0.67614191     0.36100
C2566       C  0.60960257  0.53993125  0.74630288     0.36000
N2567       N  0.69407512  0.99473359  0.66191303    -0.44200
N2568       N  0.59467339  0.54741544  0.75981884    -0.44200
C2569       C  0.60337560  0.90886327  0.86489255    -0.00600
C2570       C  0.58632994  0.91711312  0.88927602    -0.12500
C2571       C  0.58329998  0.91489503  0.94059834     0.01600
C2572       C  0.59740316  0.90406976  0.96844333    -0.00700
C2573       C  0.61450965  0.89599884  0.94425400    -0.12500
C2574       C  0.61801172  0.89866049  0.89325189     0.01500
H2575       H  0.57473255  0.92473589  0.86818308     0.14500
H2576       H  0.62622299  0.88855246  0.96551338     0.14500
C2577       C  0.63656258  0.89033246  0.87184316     0.36100
C2578       C  0.56527342  0.92344144  0.96343189     0.36000
N2579       N  0.65139017  0.88353741  0.85505444    -0.44200
N2580       N  0.55091478  0.93037290  0.98175344    -0.44200
C2581       C  0.91884589  0.74420094  0.56956801    -0.00600
C2582       C  0.92284683  0.74376728  0.62110099    -0.12500
C2583       C  0.92457327  0.72166031  0.64343557     0.01600
C2584       C  0.92142428  0.69934085  0.61396483    -0.00700
C2585       C  0.92135899  0.70194814  0.56210140    -0.12500
C2586       C  0.92007188  0.72417941  0.53969702     0.01500
H2587       H  0.92229468  0.75943408  0.64425778     0.14500
H2588       H  0.91922041  0.68494492  0.53922686     0.14500
C2589       C  0.91641106  0.72403916  0.48665371     0.36100
C2590       C  0.92676969  0.72089000  0.69667612     0.36000
N2591       N  0.91341024  0.72399968  0.44416136    -0.44200
N2592       N  0.92863210  0.72037180  0.73937019    -0.44200
C2593       C  0.82104661  0.73015179  0.45525401    -0.00600
C2594       C  0.82583163  0.72853324  0.40465977    -0.12500
C2595       C  0.80541046  0.70704282  0.37469327     0.01600
C2596       C  0.77941912  0.68630542  0.39510874    -0.00700
C2597       C  0.77455428  0.68749897  0.44565150    -0.12500
C2598       C  0.79489236  0.70921693  0.47573257     0.01500
H2599       H  0.84572123  0.74411451  0.38824673     0.14500
H2600       H  0.75462727  0.67160218  0.46153694     0.14500
C2601       C  0.78837722  0.70889897  0.52752349     0.36100
C2602       C  0.81221218  0.70609288  0.32345509     0.36000
N2603       N  0.78301829  0.70855124  0.56898022    -0.44200
N2604       N  0.81776298  0.70530503  0.28248243    -0.44200
C2605       C  0.98395728  0.86764641  0.53460765    -0.00600
C2606       C  0.99555148  0.89443663  0.55611488    -0.12500
C2607       C  0.52336922  0.90738687  0.57388492     0.01600
C2608       C  0.53887665  0.89354838  0.57603891    -0.00700
C2609       C  0.52860004  0.86804629  0.55043185    -0.12500
C2610       C  0.50157065  0.85452382  0.52862476     0.01500
H2611       H  0.98259174  0.90388495  0.55967675     0.14500
H2612       H  0.54045600  0.85732914  0.55158878     0.14500
C2613       C  0.49084264  0.82699531  0.50723370     0.36100
C2614       C  0.53418847  0.93490489  0.59551704     0.36000
N2615       N  0.48241065  0.80497750  0.48996441    -0.44200
N2616       N  0.54299410  0.95700822  0.61267716    -0.44200
C2617       C  0.90315191  0.81358336  0.70782693    -0.00600
C2618       C  0.87904619  0.80313075  0.73727209    -0.12500
C2619       C  0.88159572  0.80521220  0.78852858     0.01600
C2620       C  0.90858047  0.81727668  0.81024181    -0.00700
C2621       C  0.93275048  0.82924256  0.78056928    -0.12500
C2622       C  0.93021852  0.82769041  0.72917543     0.01500
H2623       H  0.85828203  0.79354921  0.72008786     0.14500
H2624       H  0.95344874  0.83862302  0.79753604     0.14500
C2625       C  0.95537782  0.83980982  0.69924527     0.36100
C2626       C  0.85653243  0.79575162  0.81794442     0.36000
N2627       N  0.97552752  0.84957801  0.67524104    -0.44200
N2628       N  0.83647702  0.78852241  0.84137731    -0.44200
C2629       C  0.88167317  0.85679732  0.42182184    -0.00600
C2630       C  0.85599316  0.84082216  0.39613525    -0.12500
C2631       C  0.84199891  0.85374873  0.37498599     0.01600
C2632       C  0.85369850  0.88317564  0.37988919    -0.00700
C2633       C  0.88082357  0.89929223  0.40076137    -0.12500
C2634       C  0.89490543  0.88647085  0.42113241     0.01500
H2635       H  0.84570150  0.81803260  0.39608325     0.14500
H2636       H  0.89057277  0.92199003  0.40322323     0.14500
C2637       C  0.92254679  0.90420252  0.44288755     0.36100
C2638       C  0.81467375  0.83601559  0.35232249     0.36000
N2639       N  0.94471471  0.91830417  0.46025585    -0.44200
N2640       N  0.79282160  0.82179370  0.33395410    -0.44200
C2641       C  0.72970086  0.91589600  0.77090706    -0.00600
C2642       C  0.72330304  0.90757671  0.72105398    -0.12500
C2643       C  0.70189395  0.90904148  0.69564802     0.01600
C2644       C  0.68629836  0.91890696  0.72015956    -0.00700
C2645       C  0.69442117  0.92985416  0.76835597    -0.12500
C2646       C  0.71620805  0.92865846  0.79376368     0.01500
H2647       H  0.73393359  0.89831128  0.70264766     0.14500
H2648       H  0.68216507  0.93711173  0.78765601     0.14500
C2649       C  0.72238615  0.93810541  0.84445767     0.36100
C2650       C  0.69469398  0.89811335  0.64581278     0.36000
N2651       N  0.72733592  0.94575297  0.88509526    -0.44200
N2652       N  0.68897351  0.88942117  0.60585347    -0.44200
C2653       C  0.67774077  0.78444377  0.94963461    -0.00600
C2654       C  0.70152321  0.78230875  0.93974473    -0.12500
C2655       C  0.72507377  0.80430276  0.91596170     0.01600
C2656       C  0.72528793  0.82925907  0.90362592    -0.00700
C2657       C  0.70198656  0.83174433  0.91530622    -0.12500
C2658       C  0.67824200  0.80956298  0.93779088     0.01500
H2659       H  0.70155736  0.76334436  0.95022386     0.14500
H2660       H  0.70204024  0.85086655  0.90566114     0.14500
C2661       C  0.65535679  0.81380505  0.95048963     0.36100
C2662       C  0.74889335  0.80104676  0.90553198     0.36000
N2663       N  0.63740071  0.81779875  0.96075639    -0.44200
N2664       N  0.76796384  0.79842356  0.89713918    -0.44200
C2665       C  0.81821129  0.83843274  0.72859346    -0.00600
C2666       C  0.79818652  0.81498936  0.70091143    -0.12500
C2667       C  0.80615014  0.80630118  0.65842103     0.01600
C2668       C  0.83407299  0.82236094  0.64124932    -0.00700
C2669       C  0.85411753  0.84495741  0.66990677    -0.12500
C2670       C  0.84685877  0.85219253  0.71427450     0.01500
H2671       H  0.77615707  0.80397092  0.71162787     0.14500
H2672       H  0.87601642  0.85654957  0.65859902     0.14500
C2673       C  0.86944447  0.87425616  0.74327839     0.36100
C2674       C  0.78528589  0.78151806  0.63231039     0.36000
N2675       N  0.88768551  0.89173656  0.76652415    -0.44200
N2676       N  0.76854244  0.76155698  0.61155267    -0.44200
C2677       C  0.84859398  0.89223550  0.92890789    -0.00600
C2678       C  0.83196712  0.86499610  0.94897991    -0.12500
C2679       C  0.84443151  0.85032968  0.96936254     0.01600
C2680       C  0.87416211  0.86322143  0.97107146    -0.00700
C2681       C  0.89063614  0.89129760  0.95469702    -0.12500
C2682       C  0.87823981  0.90569987  0.93361175     0.01500
H2683       H  0.80918726  0.85417393  0.94480389     0.14500
H2684       H  0.91348598  0.90159262  0.95595432     0.14500
C2685       C  0.89649654  0.93396965  0.91529595     0.36100
C2686       C  0.82627444  0.82115149  0.98297567     0.36000
N2687       N  0.91110458  0.95661513  0.90057246    -0.44200
N2688       N  0.81160163  0.79770524  0.99347254    -0.44200
C2689       C  0.85484006  0.99184732  0.80684392    -0.00600
C2690       C  0.84343389  0.50817263  0.81062327    -0.12500
C2691       C  0.85572712  0.53557244  0.79041837     0.01600
C2692       C  0.88005023  0.54624294  0.76058495    -0.00700
C2693       C  0.89356612  0.53062930  0.75713790    -0.12500
C2694       C  0.88119224  0.00401312  0.78269199     0.01500
H2695       H  0.82352283  0.49923965  0.83005519     0.14500
H2696       H  0.91272044  0.53887057  0.73552746     0.14500
C2697       C  0.89646687  0.98927558  0.77892329     0.36100
C2698       C  0.84206294  0.55151252  0.79825389     0.36000
N2699       N  0.90866685  0.97743445  0.77625218    -0.44200
N2700       N  0.83133926  0.56446174  0.80538640    -0.44200
C2701       C  0.79719179  0.90314868  0.64303318    -0.00600
C2702       C  0.82218530  0.92332579  0.62000832    -0.12500
C2703       C  0.82311793  0.92770282  0.56886665     0.01600
C2704       C  0.79855072  0.91126127  0.53956181    -0.00700
C2705       C  0.77379730  0.89063769  0.56277414    -0.12500
C2706       C  0.77278468  0.88652987  0.61378937     0.01500
H2707       H  0.84100619  0.93609768  0.64219912     0.14500
H2708       H  0.75488346  0.87762045  0.54109656     0.10900
C2709       C  0.74643765  0.86457605  0.63435946     0.36100
C2710       C  0.84949955  0.94959401  0.54838918     0.36000
N2711       N  0.72520753  0.84703632  0.65046327    -0.44200
N2712       N  0.87069111  0.96717953  0.53224143    -0.44200
C2713       C  0.81940262  0.59723853  0.23937268    -0.00600
C2714       C  0.79766819  0.59244899  0.20644293    -0.12500
C2715       C  0.77354313  0.59211737  0.22339299     0.01600
C2716       C  0.77050103  0.59553313  0.27443436    -0.00700
C2717       C  0.79055596  0.59677279  0.30783146    -0.12500
C2718       C  0.81502100  0.59793314  0.29082465     0.01500
H2719       H  0.80062416  0.59145193  0.16699286     0.14500
H2720       H  0.78833546  0.59938115  0.34703641     0.14500
C2721       C  0.83538838  0.60080437  0.32757117     0.36100
C2722       C  0.75329077  0.59005591  0.18700826     0.36000
N2723       N  0.85047332  0.60270797  0.35932777    -0.44200
N2724       N  0.73760012  0.58826878  0.15649166    -0.44200
C2725       C  0.90471444  0.73167835  0.05885654    -0.00600
C2726       C  0.87872699  0.70972016  0.07632617    -0.12500
C2727       C  0.87683320  0.68631101  0.10039916     0.01600
C2728       C  0.90144081  0.68508786  0.10887110    -0.00700
C2729       C  0.92744962  0.70697454  0.09152417    -0.12500
C2730       C  0.92920450  0.72987599  0.06567335     0.01500
H2731       H  0.85970093  0.71057004  0.07025131     0.14500
H2732       H  0.94644000  0.70614227  0.09825403     0.14500
C2733       C  0.95647515  0.75149758  0.04776302     0.36100
C2734       C  0.84953002  0.66429006  0.11730568     0.36000
N2735       N  0.97833043  0.76873374  0.03328868    -0.44200
N2736       N  0.82751285  0.64671393  0.13045887    -0.44200
C2737       C  0.96079343  0.62282146  0.07782508    -0.00600
C2738       C  0.97000053  0.64826893  0.05197268    -0.12500
C2739       C  0.99661132  0.66240407  0.02880965     0.01600
C2740       C  0.51311926  0.65097928  0.02993898    -0.00700
C2741       C  0.50183878  0.62344987  0.04835305    -0.12500
C2742       C  0.97709992  0.60984236  0.07481666     0.01500
H2743       H  0.95769336  0.65848850  0.05391409     0.14500
H2744       H  0.51472172  0.61380308  0.04831720     0.14500
C2745       C  0.96815418  0.58297316  0.09812435     0.36100
C2746       C  0.00638743  0.68997586  0.00789955     0.36000
N2747       N  0.96104168  0.56149282  0.11692867    -0.44200
N2748       N  0.01404033  0.71205389  0.99116174    -0.44200
C2749       C  0.98967760  0.67937151  0.28676465    -0.00600
C2750       C  0.99200679  0.70093201  0.31782032    -0.12500
C2751       C  0.50606645  0.70680284  0.35994164     0.01600
C2752       C  0.51814650  0.69099707  0.37581367    -0.00700
C2753       C  0.51646896  0.66999102  0.34475853    -0.12500
C2754       C  0.00424665  0.66545051  0.30069730     0.01500
H2755       H  0.98092932  0.71181716  0.30809498     0.14500
H2756       H  0.52668445  0.65846738  0.35567061     0.14500
C2757       C  0.00538268  0.64491054  0.26956859     0.36100
C2758       C  0.50788582  0.72908855  0.39020242     0.36000
N2759       N  0.00660043  0.62861000  0.24467838    -0.44200
N2760       N  0.50926269  0.74686231  0.41465815    -0.44200
C2761       C  0.87310821  0.52584283  0.20868381    -0.00600
C2762       C  0.88946592  0.51552742  0.22975519    -0.12500
C2763       C  0.87683636  0.48862601  0.25098260     0.01600
C2764       C  0.84712760  0.97069264  0.24857971    -0.00700
C2765       C  0.83109054  0.97845963  0.21889486    -0.12500
C2766       C  0.84358024  0.50737887  0.20441570     0.01500
H2767       H  0.91220572  0.52925357  0.23247425     0.14500
H2768       H  0.80830644  0.96485603  0.21748619     0.14500
C2769       C  0.82555569  0.51674615  0.18369133     0.36100
C2770       C  0.89473497  0.48014501  0.27550086     0.36000
N2771       N  0.81154448  0.01970786  0.14992763    -0.44200
N2772       N  0.90897094  0.47333520  0.29543543    -0.44200
C2773       C  0.91308331  0.61965994  0.37100451    -0.00600
C2774       C  0.91075062  0.59618065  0.39504447    -0.12500
C2775       C  0.90744249  0.59335415  0.44627370     0.01600
C2776       C  0.90663790  0.61468769  0.47417868    -0.00700
C2777       C  0.91103102  0.63908814  0.44989879    -0.12500
C2778       C  0.91443691  0.64183553  0.39879485     0.01500
H2779       H  0.91015811  0.57939332  0.37345741     0.14500
H2780       H  0.91108512  0.65583110  0.47056727     0.14500
C2781       C  0.91927522  0.66763143  0.37583415     0.36100
C2782       C  0.90336257  0.56754648  0.46792875     0.36000
N2783       N  0.92320897  0.68831693  0.35750285    -0.44200
N2784       N  0.89990827  0.54673954  0.48494275    -0.44200
loop_ 
_geom_bond_atom_site_label_1 
_geom_bond_atom_site_label_2 
_geom_bond_distance 
_geom_bond_site_symmetry_2 
_ccdc_geom_bond_type 
O1           C16   1.258       .  A
O1           Al9   1.857       .  S
C2           O12   1.265       .  A
C2            O3   1.265       .  A
C2          C649   1.489       .  S
O3           Al5   1.911       .  S
O4            C6   1.258       .  A
O4           Al5   1.895       .  S
Al5          O13   1.873       .  S
Al5          O15   1.920       .  S
Al5          O14   1.774       .  S
C6           O19   1.257       .  A
C6          C661   1.487       .  S
O7           C17   1.258       .  A
O7           Al9   1.880       .  S
O8           C21   1.265       .  A
O8          Al18   1.922       .  S
Al9          O22   1.914       .  S
Al9          O19   1.905       .  S
Al9          O14   1.779       .  S
O10          C17   1.268       .  A
O10         Al18   1.944       .  S
O11          C20   1.266       .  A
O11         Al18   1.948       .  S
O12         Al18   1.922       .  S
O13          C20   1.256       .  A
O14         Al18   1.783       .  S
O15          C16   1.264       .  A
C16         C685   1.458       .  S
C17         C640   1.471       .  S
C20         C673   1.489       .  S
C21          O22   1.263       .  A
C21         C625   1.479       .  S
O23          C38   1.258       .  A
O23         Al31   1.865       .  S
C24          O34   1.267       .  A
C24          O25   1.266       .  A
C24         C589   1.492       .  S
O25         Al27   1.920       .  S
O26          C28   1.256       .  A
O26         Al27   1.892       .  S
Al27         O35   1.869       .  S
Al27         O37   1.930       .  S
Al27         O36   1.764       .  S
C28          O41   1.258       .  A
C28         C577   1.481       .  S
O29          C39   1.260       .  A
O29         Al31   1.883       .  S
O30          C43   1.269       .  A
O30         Al40   1.934       .  S
Al31         O44   1.912       .  S
Al31         O41   1.910       .  S
Al31         O36   1.775       .  S
O32          C39   1.271       .  A
O32         Al40   1.942       .  S
O33          C42   1.268       .  A
O33         Al40   1.960       .  S
O34         Al40   1.923       .  S
O35          C42   1.255       .  A
O36         Al40   1.778       .  S
O37          C38   1.269       .  A
C38         C613   1.470       .  S
C39         C568   1.469       .  S
C42         C601   1.493       .  S
C43          O44   1.264       .  A
C43         C553   1.484       .  S
O45          C60   1.259       .  A
O45         Al53   1.875       .  S
C46          O56   1.266       .  A
C46          O47   1.261       .  A
C46         C541   1.486       .  S
O47         Al49   1.893       .  S
O48          C50   1.260       .  A
O48         Al49   1.896       .  S
Al49         O57   1.868       .  S
Al49         O59   1.888       .  S
Al49         O58   1.778       .  S
C50          O63   1.256       .  A
C50         C580   1.471       .  S
O51          C61   1.261       .  A
O51         Al53   1.889       .  S
O52          C65   1.262       .  A
O52         Al62   1.920       .  S
Al53         O66   1.898       .  S
Al53         O63   1.903       .  S
Al53         O58   1.789       .  S
O54          C61   1.271       .  A
O54         Al62   1.940       .  S
O55          C64   1.265       .  A
O55         Al62   1.944       .  S
O56         Al62   1.927       .  S
O57          C64   1.254       .  A
O58         Al62   1.783       .  S
O59          C60   1.258       .  A
C60         C529   1.440       .  S
C61         C505   1.492       .  S
C64         C517   1.487       .  S
C65          O66   1.259       .  A
C65         C493   1.474       .  S
O67          C82   1.261       .  A
O67         Al75   1.870       .  S
C68          O78   1.263       .  A
C68          O69   1.263       .  A
C68         C520   1.481       .  S
O69         Al71   1.901       .  S
O70          C72   1.258       .  A
O70         Al71   1.898       .  S
Al71         O79   1.845       .  S
Al71         O81   1.911       .  S
Al71         O80   1.775       .  S
C72          O85   1.256       .  A
C72         C457   1.483       .  S
O73          C83   1.265       .  A
O73         Al75   1.881       .  S
O74          C87   1.261       .  A
O74         Al84   1.927       .  S
Al75         O88   1.899       .  S
Al75         O85   1.909       .  S
Al75         O80   1.782       .  S
O76          C83   1.278       .  A
O76         Al84   1.964       .  S
O77          C86   1.268       .  A
O77         Al84   1.961       .  S
O78         Al84   1.910       .  S
O79          C86   1.249       .  A
O80         Al84   1.781       .  S
O81          C82   1.267       .  A
C82         C481   1.471       .  S
C83         C445   1.487       .  S
C86         C469   1.488       .  S
C87          O88   1.256       .  A
C87         C556   1.472       .  S
O89         C104   1.259       .  A
O89         Al97   1.864       .  S
C90         O100   1.263       .  A
C90          O91   1.262       .  A
C90         C433   1.482       .  S
O91         Al93   1.912       .  S
O92          C94   1.258       .  A
O92         Al93   1.886       .  S
Al93        O101   1.867       .  S
Al93        O103   1.914       .  S
Al93        O102   1.778       .  S
C94         O107   1.258       .  A
C94         C421   1.487       .  S
O95         C105   1.261       .  A
O95         Al97   1.881       .  S
O96         C109   1.264       .  A
O96        Al106   1.924       .  S
Al97        O110   1.895       .  S
Al97        O107   1.910       .  S
Al97        O102   1.783       .  S
O98         C105   1.271       .  A
O98        Al106   1.947       .  S
O99         C108   1.269       .  A
O99        Al106   1.954       .  S
O100       Al106   1.921       .  S
O101        C108   1.255       .  A
O102       Al106   1.782       .  S
O103        C104   1.263       .  A
C104        C412   1.459       .  S
C105        C508   1.481       .  S
C108        C400   1.491       .  S
C109        O110   1.259       .  A
C109        C628   1.473       .  S
O111        C126   1.267       .  A
O111       Al119   1.876       .  S
C112        O122   1.261       .  A
C112        O113   1.262       .  A
C112        C472   1.481       .  S
O113       Al115   1.904       .  S
O114        C116   1.257       .  A
O114       Al115   1.910       .  S
Al115       O123   1.868       .  S
Al115       O125   1.915       .  S
Al115       O124   1.781       .  S
C116        O129   1.250       .  A
C116        C385   1.472       .  S
O117        C127   1.267       .  A
O117       Al119   1.892       .  S
O118        C131   1.258       .  A
O118       Al128   1.926       .  S
Al119       O132   1.880       .  S
Al119       O129   1.885       .  S
Al119       O124   1.779       .  S
O120        C127   1.277       .  A
O120       Al128   1.959       .  S
O121        C130   1.268       .  A
O121       Al128   1.955       .  S
O122       Al128   1.911       .  S
O123        C130   1.253       .  A
O124       Al128   1.783       .  S
O125        C126   1.268       .  A
C126        C409   1.474   1_556  S
C127        C361   1.481       .  S
C130        C373   1.503       .  S
C131        O132   1.252       .  A
C131        C349   1.464       .  S
O133        C148   1.264       .  A
O133       Al141   1.882       .  S
C134        O144   1.261       .  A
C134        O135   1.262       .  A
C134        C340   1.490       .  S
O135       Al137   1.906       .  S
O136        C138   1.260       .  A
O136       Al137   1.900       .  S
Al137       O145   1.859       .  S
Al137       O147   1.903       .  S
Al137       O146   1.784       .  S
C138        O151   1.255       .  A
C138        C664   1.470       .  S
O139        C149   1.262       .  A
O139       Al141   1.878       .  S
O140        C153   1.260       .  A
O140       Al150   1.934       .  S
Al141       O154   1.887       .  S
Al141       O151   1.900       .  S
Al141       O146   1.780       .  S
O142        C149   1.275       .  A
O142       Al150   1.961       .  S
O143        C152   1.269       .  A
O143       Al150   1.960       .  S
O144       Al150   1.909       .  S
O145        C152   1.251       .  A
O146       Al150   1.789       .  S
O147        C148   1.262       .  A
C148        C325   1.475       .  S
C149        C448   1.489       .  S
C152        C436   1.483       .  S
C153        O154   1.259       .  A
C153        C316   1.478       .  S
O155        C170   1.270       .  A
O155       Al163   1.895       .  S
C156        O166   1.270       .  A
C156        O157   1.264       .  A
C156        C676   1.484       .  S
O157       Al159   1.885       .  S
O158        C160   1.257       .  A
O158       Al159   1.914       .  S
Al159       O167   1.881       .  S
Al159       O169   1.904       .  S
Al159       O168   1.775       .  S
C160        O173   1.242       .  A
C160        C301   1.462       .  S
O161        C171   1.266       .  A
O161       Al163   1.889       .  S
O162        C175   1.269       .  A
O162       Al172   1.973       .  S
Al163       O176   1.880       .  S
Al163       O173   1.844       .  S
Al163       O168   1.779       .  S
O164        C171   1.275       .  A
O164       Al172   1.947       .  S
O165        C174   1.258       .  A
O165       Al172   1.916       .  S
O166       Al172   1.931       .  S
O167        C174   1.254       .  A
O168       Al172   1.782       .  S
O169        C170   1.267       .  A
C170        C616   1.479       .  S
C171        C292   1.482       .  S
C174        C544   1.490       .  S
C175        O176   1.248       .  A
C175        C313   1.495       .  S
O177        C192   1.258       .  A
O177       Al185   1.869       .  S
C178        O188   1.269       .  A
C178        O179   1.267       .  A
C178        C376   1.502       .  S
O179       Al181   1.919   1_556  S
O180        C182   1.258       .  A
O180       Al181   1.902       .  S
Al181       O189   1.865       .  S
Al181       O191   1.922       .  S
Al181       O190   1.776       .  S
C182        O195   1.254       .  A
C182        C424   1.468       .  S
O183        C193   1.259   1_554  A
O183       Al185   1.879       .  S
O184        C197   1.265       .  A
O184       Al194   1.939   1_554  S
Al185       O198   1.908       .  S
Al185       O195   1.900       .  S
Al185       O190   1.778       .  S
O186        C193   1.273       .  A
O186       Al194   1.951       .  S
O187        C196   1.266   1_556  A
O187       Al194   1.950       .  S
O188       Al194   1.932       .  S
O189        C196   1.253       .  A
O190       Al194   1.783   1_554  S
O191        C192   1.268       .  A
C192        C328   1.476       .  S
C193        C565   1.471       .  S
C196        C652   1.487       .  S
C197        O198   1.260       .  A
C197        C280   1.485       .  S
O199        C214   1.262       .  A
O199       Al207   1.875       .  S
C200        O210   1.268       .  A
C200        O201   1.262       .  A
C200        C397   1.497       .  S
O201       Al203   1.895       .  S
O202        C204   1.261       .  A
O202       Al203   1.908       .  S
Al203       O211   1.869       .  S
Al203       O213   1.903       .  S
Al203       O212   1.776       .  S
C204        O217   1.255       .  A
C204        C388   1.473       .  S
O205        C215   1.260       .  A
O205       Al207   1.879       .  S
O206        C219   1.264       .  A
O206       Al216   1.942       .  S
Al207       O220   1.894       .  S
Al207       O217   1.893       .  S
Al207       O212   1.780       .  S
O208        C215   1.272       .  A
O208       Al216   1.947       .  S
O209        C218   1.266       .  A
O209       Al216   1.942       .  S
O210       Al216   1.938       .  S
O211        C218   1.256       .  A
O212       Al216   1.781       .  S
O213        C214   1.263       .  A
C214        C484   1.462   1_554  S
C215        C289   1.467       .  S
C218        C265   1.485       .  S
C219        O220   1.256       .  A
C219        C277   1.481       .  S
O221        C236   1.269       .  A
O221       Al229   1.903       .  S
C222        O232   1.267       .  A
C222        O223   1.258       .  A
C222        C604   1.491       .  S
O223       Al225   1.883       .  S
O224        C226   1.258       .  A
O224       Al225   1.898       .  S
Al225       O233   1.858       .  S
Al225       O235   1.893       .  S
Al225       O234   1.776       .  S
C226        O239   1.253       .  A
C226        C304   1.468       .  S
O227        C237   1.264       .  A
O227       Al229   1.895       .  S
O228        C241   1.261       .  A
O228       Al238   1.934       .  S
Al229       O242   1.888       .  S
Al229       O239   1.889       .  S
Al229       O234   1.786       .  S
O230        C237   1.275       .  A
O230       Al238   1.957       .  S
O231        C240   1.268       .  A
O231       Al238   1.952       .  S
O232       Al238   1.940       .  S
O233        C240   1.253       .  A
O234       Al238   1.784       .  S
O235        C236   1.261       .  A
C236        C688   1.477       .  S
C237        C364   1.481       .  S
C240        C337   1.490       .  S
C241        O242   1.255       .  A
C241        C496   1.476       .  S
O243        C258   1.260       .  A
O243       Al251   1.871       .  S
C244        O254   1.266       .  A
C244        O245   1.263       .  A
C244        C268   1.486       .  S
O245       Al247   1.892   1_554  S
O246        C248   1.258       .  A
O246       Al247   1.902       .  S
Al247       O255   1.868       .  S
Al247       O257   1.908       .  S
Al247       O256   1.779       .  S
C248        O261   1.252       .  A
C248        C460   1.470       .  S
O249        C259   1.263   1_556  A
O249       Al251   1.881       .  S
O250        C263   1.265       .  A
O250       Al260   1.935   1_556  S
Al251       O264   1.898       .  S
Al251       O261   1.890       .  S
Al251       O256   1.777       .  S
O252        C259   1.275       .  A
O252       Al260   1.952       .  S
O253        C262   1.267   1_554  A
O253       Al260   1.952       .  S
O254       Al260   1.924       .  S
O255        C262   1.253       .  A
O256       Al260   1.778   1_556  S
O257        C258   1.263       .  A
C258        C532   1.449       .  S
C259        C637   1.478       .  S
C262        C592   1.494       .  S
C263        O264   1.256       .  A
C263        C352   1.485       .  S
C265        C266   1.406   1_455  A
C265        C270   1.413       .  A
C266       C1659   1.409       .  A
C266        H271   1.085   1_655  S
C267        C268   1.416       .  A
C267       C1658   1.410       .  A
C267        C274   1.443       .  S
C268        C269   1.404       .  A
C269       C1662   1.396       .  A
C269        H272   1.085       .  S
C270       C1661   1.397   1_455  A
C270        C273   1.445       .  S
C273        N275   1.157       .  T
C274        N276   1.157       .  T
C277        C278   1.410       .  A
C277        C282   1.405       .  A
C278        C279   1.408       .  A
C278        H283   1.085       .  S
C279        C280   1.408       .  A
C279        C286   1.443   1_554  S
C280        C281   1.408       .  A
C281        C282   1.403       .  A
C281        H284   1.083       .  S
C282        C285   1.443       .  S
C285        N287   1.157       .  T
C286        N288   1.157       .  T
C289        C290   1.400       .  A
C289        C294   1.406       .  A
C290        C291   1.402       .  A
C290        H295   1.084       .  S
C291        C292   1.416       .  A
C291        C298   1.444       .  S
C292        C293   1.406       .  A
C293        C294   1.397       .  A
C293        H296   1.085       .  S
C294        C297   1.443       .  S
C297        N299   1.157       .  T
C298        N300   1.157       .  T
C301        C302   1.409       .  A
C301       C1002   1.398       .  A
C302        C999   1.391       .  A
C302        H307   1.085       .  S
C303        C304   1.401       .  A
C303        C998   1.392   1_545  A
C303       C1006   1.445   1_545  S
C304        C305   1.414       .  A
C305        C306   1.399       .  A
C305        H308   1.084       .  S
C306        C997   1.399   1_545  A
C306        C309   1.444       .  S
C309        N311   1.157       .  T
C310        C999   1.445       .  S
C310        N312   1.157       .  T
C313        C314   1.408       .  A
C313        C318   1.427       .  A
C314        C315   1.413       .  A
C314        H319   1.084       .  S
C315        C316   1.412       .  A
C315        C322   1.439       .  S
C316        C317   1.392       .  A
C317        C318   1.387       .  A
C317        H320   1.087       .  S
C318        C321   1.446       .  S
C321        N323   1.158       .  T
C322        N324   1.157       .  T
C325        C326   1.401       .  A
C325        C330   1.415       .  A
C326        C327   1.390       .  A
C326        H331   1.085       .  S
C327        C328   1.417       .  A
C327        C334   1.444       .  S
C328        C329   1.403       .  A
C329        C330   1.396       .  A
C329        H332   1.085       .  S
C330        C333   1.445       .  S
C333        N335   1.157       .  T
C334        N336   1.157       .  T
C337        C338   1.408       .  A
C337        C342   1.413       .  A
C338       C1731   1.400       .  A
C338        H343   1.085       .  S
C339        C340   1.412       .  A
C339       C1730   1.400   1_455  A
C339        C346   1.445       .  S
C340        C341   1.409       .  A
C341       C1734   1.409   1_455  A
C341        H344   1.084       .  S
C342       C1733   1.409       .  A
C342        C345   1.443       .  S
C345        N347   1.157       .  T
C346        N348   1.157       .  T
C349        C350   1.393       .  A
C349        C354   1.410       .  A
C350        C351   1.392       .  A
C350        H355   1.086       .  S
C351        C352   1.422       .  A
C351        C358   1.445       .  S
C352        C353   1.406       .  A
C353        C354   1.408       .  A
C353        H356   1.084       .  S
C354        C357   1.443       .  S
C357        N359   1.157       .  T
C358        N360   1.158       .  T
C361        C362   1.403       .  A
C361        C366   1.412       .  A
C362        C363   1.403       .  A
C362        H367   1.085       .  S
C363        C364   1.411       .  A
C363        C370   1.442       .  S
C364        C365   1.404       .  A
C365        C366   1.405       .  A
C365        H368   1.084       .  S
C366        C369   1.444       .  S
C369        N371   1.157       .  T
C370        N372   1.156       .  T
C373        C374   1.408       .  A
C373        C378   1.420       .  A
C374        C375   1.414       .  A
C374        H379   1.084       .  S
C375        C376   1.418       .  A
C375        C382   1.442       .  S
C376        C377   1.405       .  A
C377        C378   1.404       .  A
C377        H380   1.085       .  S
C378        C381   1.445       .  S
C381        N383   1.157       .  T
C382        N384   1.157       .  T
C385        C386   1.410   1_556  A
C385        C390   1.402       .  A
C386       C1083   1.398       .  A
C386        H391   1.084       .  S
C387        C388   1.402       .  A
C387       C1082   1.400       .  A
C387        C394   1.444       .  S
C388       C1085   1.410   1_554  A
C389        C390   1.399   1_565  A
C389       C1084   1.413   1_556  A
C389       H1088   1.085       .  S
C390        C393   1.444   1_545  S
H392       C1085   1.084       .  S
C393        N395   1.157       .  T
C394        N396   1.157       .  T
C397        C398   1.405       .  A
C397        C402   1.415       .  A
C398       C1095   1.399       .  A
C398        H403   1.085       .  S
C399        C400   1.416       .  A
C399       C1094   1.399   1_545  A
C399        C406   1.445       .  S
C400        C401   1.406       .  A
C401       C1098   1.411   1_545  A
C401        H404   1.085       .  S
C402       C1097   1.414       .  A
C402        C405   1.441       .  S
C405        N407   1.157       .  T
C406        N408   1.157       .  T
C409        C410   1.403       .  A
C409        C414   1.419       .  A
C410        C411   1.386       .  A
C410        H415   1.085       .  S
C411        C412   1.409       .  A
C411        C418   1.446       .  S
C412        C413   1.398       .  A
C413        C414   1.396       .  A
C413        H416   1.085       .  S
C414        C417   1.445       .  S
C417        N419   1.157       .  T
C418        N420   1.157       .  T
C421        C422   1.416       .  A
C421        C426   1.414       .  A
C422        C423   1.405       .  A
C422        H427   1.084       .  S
C423        C424   1.402       .  A
C423        C430   1.442       .  S
C424        C425   1.401       .  A
C425        C426   1.392       .  A
C425        H428   1.080       .  S
C426        C429   1.445       .  S
C429        N431   1.157       .  T
C430        N432   1.157       .  T
C433        C434   1.398       .  A
C433        C438   1.412       .  A
C434        C435   1.394       .  A
C434        H439   1.085       .  S
C435        C436   1.412       .  A
C435        C442   1.444       .  S
C436        C437   1.409       .  A
C437        C438   1.417       .  A
C437        H440   1.084       .  S
C438        C441   1.442       .  S
C441        N443   1.157       .  T
C442        N444   1.157       .  T
C445        C446   1.409       .  A
C445        C450   1.409       .  A
C446        C447   1.404       .  A
C446        H451   1.085       .  S
C447        C448   1.411       .  A
C447        C454   1.444       .  S
C448        C449   1.410       .  A
C449        C450   1.403       .  A
C449        H452   1.085       .  S
C450        C453   1.444       .  S
C453        N455   1.157       .  T
C454        N456   1.157       .  T
C457        C458   1.407       .  A
C457       C1854   1.418       .  A
C458        C459   1.405   1_455  A
C458        H463   1.085       .  S
C459       C1852   1.411       .  A
C459        C466   1.443       .  S
C460        C461   1.400       .  A
C460       C1851   1.409       .  A
C461        C462   1.395       .  A
C461        H464   1.085       .  S
C462       C1849   1.416       .  A
C462        C465   1.444       .  S
C465        N467   1.157       .  T
C466        N468   1.157       .  T
C469        C474   1.412       .  A
C469       C1166   1.408       .  A
C470        C471   1.401       .  A
C470       C1165   1.408   1_545  A
C470        H475   1.085   1_545  S
C471        C472   1.407       .  A
C471        C478   1.444       .  S
C472        C473   1.407       .  A
C473       C1170   1.408       .  A
C473        H476   1.085       .  S
C474       C1169   1.411       .  A
C474        C477   1.443       .  S
C477        N479   1.157       .  T
C478        N480   1.157       .  T
C481        C482   1.407       .  A
C481        C486   1.415       .  A
C482        C483   1.393       .  A
C482        H487   1.085       .  S
C483        C484   1.409       .  A
C483        C490   1.445       .  S
C484        C485   1.400       .  A
C485        C486   1.387       .  A
C485        H488   1.085       .  S
C486        C489   1.446       .  S
C489        N491   1.157       .  T
C490        N492   1.157       .  T
C493        C494   1.408       .  A
C493        C498   1.404       .  A
C494        C495   1.405       .  A
C494        H499   1.085       .  S
C495        C496   1.406       .  A
C495        C502   1.443       .  S
C496        C497   1.407       .  A
C497        C498   1.400       .  A
C497        H500   1.083       .  S
C498        C501   1.443       .  S
C501        N503   1.157       .  T
C502        N504   1.157       .  T
C505        C506   1.405       .  A
C505        C510   1.421       .  A
C506        C507   1.399       .  A
C506        H511   1.085       .  S
C507        C508   1.412       .  A
C507        C514   1.445       .  S
C508        C509   1.401       .  A
C509        C510   1.405       .  A
C509        H512   1.085       .  S
C510        C513   1.444       .  S
C513        N515   1.158       .  T
C514        N516   1.157       .  T
C517        C518   1.405       .  A
C517       C1914   1.414       .  A
C518       C1911   1.400       .  A
C518        H523   1.085       .  S
C519        C520   1.410       .  A
C519       C1910   1.399   1_455  A
C519        C526   1.445       .  S
C520        C521   1.405       .  A
C521        C522   1.405       .  A
C521        H524   1.085       .  S
C522       C1909   1.413   1_455  A
C522        C525   1.443   1_455  S
C525        N527   1.157       .  T
C526        N528   1.157       .  T
C529        C530   1.399       .  A
C529        C534   1.402       .  A
C530        C531   1.388       .  A
C530        H535   1.086       .  S
C531        C532   1.405       .  A
C531        C538   1.445       .  S
C532        C533   1.402       .  A
C533        C534   1.392       .  A
C533        H536   1.080       .  S
C534        C537   1.445       .  S
C537        N539   1.157       .  T
C538        N540   1.157       .  T
C541        C542   1.405       .  A
C541        C546   1.413       .  A
C542        C543   1.408       .  A
C542        H547   1.085       .  S
C543        C544   1.417       .  A
C543        C550   1.443       .  S
C544        C545   1.405       .  A
C545        C546   1.399       .  A
C545        H548   1.085       .  S
C546        C549   1.445       .  S
C549        N551   1.157       .  T
C550        N552   1.157       .  T
C553        C554   1.407       .  A
C553        C558   1.410       .  A
C554        C555   1.397       .  A
C554        H559   1.082       .  S
C555        C556   1.404       .  A
C555        C562   1.445       .  S
C556        C557   1.408       .  A
C557        C558   1.409       .  A
C557        H560   1.085       .  S
C558        C561   1.443       .  S
C561        N563   1.157       .  T
C562        N564   1.157       .  T
C565        C566   1.404       .  A
C565        C570   1.410       .  A
C566        C567   1.402       .  A
C566        H571   1.085       .  S
C567        C568   1.411       .  A
C567        C574   1.444       .  S
C568        C569   1.399       .  A
C569        C570   1.395       .  A
C569        H572   1.086       .  S
C570        C573   1.441       .  S
C573        N575   1.156       .  T
C574        N576   1.157       .  T
C577        C578   1.410       .  A
C577        C582   1.415       .  A
C578        C579   1.405       .  A
C578        H583   1.084       .  S
C579        C580   1.408       .  A
C579        C586   1.443       .  S
C580        C581   1.401       .  A
C581        C582   1.391       .  A
C581        H584   1.084       .  S
C582        C585   1.445       .  S
C585        N587   1.158       .  T
C586        N588   1.157       .  T
C589        C590   1.409       .  A
C589        C594   1.412       .  A
C590        C591   1.411       .  A
C590        H595   1.085       .  S
C591        C592   1.414       .  A
C591        C598   1.443       .  S
C592        C593   1.408       .  A
C593        C594   1.403       .  A
C593        H596   1.085       .  S
C594        C597   1.444       .  S
C597        N599   1.157       .  T
C598        N600   1.157       .  T
C601        C606   1.415       .  A
C601       C1298   1.408       .  A
C602        C603   1.413       .  A
C602       C1297   1.408   1_545  A
C602        H607   1.084   1_545  S
C603        C604   1.414       .  A
C603        C610   1.441       .  S
C604        C605   1.404       .  A
C605       C1302   1.398       .  A
C605        H608   1.085       .  S
C606       C1301   1.399       .  A
C606        C609   1.446       .  S
C609        N611   1.157       .  T
C610        N612   1.157       .  T
C613        C614   1.399       .  A
C613        C618   1.414       .  A
C614        C615   1.395       .  A
C614        H619   1.085       .  S
C615        C616   1.420       .  A
C615        C622   1.445       .  S
C616        C617   1.403       .  A
C617        C618   1.392       .  A
C617        H620   1.084       .  S
C618        C621   1.446       .  S
C621        N623   1.157       .  T
C622        N624   1.157       .  T
C625        C626   1.398       .  A
C625        C630   1.416       .  A
C626        C627   1.403       .  A
C626        H631   1.085       .  S
C627        C628   1.415       .  A
C627        C634   1.441       .  S
C628        C629   1.394       .  A
C629        C630   1.399       .  A
C629        H632   1.086       .  S
C630        C633   1.438       .  S
C633        N635   1.156       .  T
C634        N636   1.156       .  T
C637        C638   1.404       .  A
C637        C642   1.414       .  A
C638        C639   1.399       .  A
C638        H643   1.085       .  S
C639        C640   1.409       .  A
C639        C646   1.443       .  S
C640        C641   1.402       .  A
C641        C642   1.401       .  A
C641        H644   1.085       .  S
C642        C645   1.445       .  S
C645        N647   1.157       .  T
C646        N648   1.157       .  T
C649        C650   1.409       .  A
C649        C654   1.412       .  A
C650        C651   1.411       .  A
C650        H655   1.085       .  S
C651       C2044   1.414       .  A
C651        C658   1.444       .  S
C652        C653   1.405       .  A
C652       C2043   1.413   1_455  A
C653       C2046   1.400   1_455  A
C653        H656   1.085       .  S
C654       C2045   1.399       .  A
C654        C657   1.445       .  S
C657        N659   1.157       .  T
C658        N660   1.157   1_554  T
C661        C662   1.412       .  A
C661        C666   1.415       .  A
C662       C2055   1.405       .  A
C662        H667   1.084       .  S
C663        C664   1.406       .  A
C663       C2054   1.404   1_455  A
C663        C670   1.443       .  S
C664        C665   1.401       .  A
C665       C2058   1.394       .  A
C665        H668   1.083       .  S
C666       C2057   1.394       .  A
C666        C669   1.445       .  S
C669        N671   1.158       .  T
C670        N672   1.157       .  T
C673        C674   1.405       .  A
C673        C678   1.414       .  A
C674        C675   1.400   1_545  A
C674        H679   1.085       .  S
C675       C1372   1.412       .  A
C675        C682   1.445       .  S
C676        C677   1.407       .  A
C676       C1371   1.412       .  A
C677       C1374   1.410       .  A
C677        H680   1.085       .  S
C678       C1373   1.409   1_545  A
C678        C681   1.443       .  S
C681       N1379   1.157       .  T
C682        N684   1.157       .  T
N683       C1377   1.157       .  T
C685        C686   1.393       .  A
C685        C690   1.410       .  A
C686        C687   1.394       .  A
C686        H691   1.086       .  S
C687        C688   1.424       .  A
C687        C694   1.445       .  S
C688        C689   1.401       .  A
C689        C690   1.391       .  A
C689        H692   1.083       .  S
C690        C693   1.445       .  S
C693        N695   1.157       .  T
C694        N696   1.158       .  T
O697        C712   1.258       .  A
O697       Al705   1.859       .  S
C698        O708   1.265       .  A
C698        O699   1.265       .  A
C698       C1345   1.488       .  S
O699       Al701   1.913       .  S
O700        C702   1.257       .  A
O700       Al701   1.894       .  S
Al701       O709   1.868       .  S
Al701       O711   1.926       .  S
Al701       O710   1.774       .  S
C702        O715   1.257       .  A
C702       C1357   1.485       .  S
O703        C713   1.258       .  A
O703       Al705   1.880       .  S
O704        C717   1.266       .  A
O704       Al714   1.921       .  S
Al705       O718   1.911       .  S
Al705       O715   1.903       .  S
Al705       O710   1.778       .  S
O706        C713   1.268       .  A
O706       Al714   1.943       .  S
O707        C716   1.267       .  A
O707       Al714   1.950       .  S
O708       Al714   1.920       .  S
O709        C716   1.256       .  A
O710       Al714   1.784       .  S
O711        C712   1.265       .  A
C712       C1381   1.460       .  S
C713       C1336   1.472       .  S
C716       C1369   1.489       .  S
C717        O718   1.264       .  A
C717       C1321   1.477       .  S
O719        C734   1.258       .  A
O719       Al727   1.863       .  S
C720        O730   1.268       .  A
C720        O721   1.265       .  A
C720       C1285   1.492       .  S
O721       Al723   1.916       .  S
O722        C724   1.256       .  A
O722       Al723   1.892       .  S
Al723       O731   1.868       .  S
Al723       O733   1.920       .  S
Al723       O732   1.767       .  S
C724        O737   1.257       .  A
C724       C1273   1.481       .  S
O725        C735   1.260       .  A
O725       Al727   1.885       .  S
O726        C739   1.270       .  A
O726       Al736   1.939       .  S
Al727       O740   1.911       .  S
Al727       O737   1.907       .  S
Al727       O732   1.776       .  S
O728        C735   1.271       .  A
O728       Al736   1.940       .  S
O729        C738   1.267       .  A
O729       Al736   1.958       .  S
O730       Al736   1.926       .  S
O731        C738   1.254       .  A
O732       Al736   1.776       .  S
O733        C734   1.267       .  A
C734       C1309   1.462       .  S
C735       C1264   1.470       .  S
C738       C1297   1.492       .  S
C739        O740   1.264       .  A
C739       C1249   1.487       .  S
O741        C756   1.259       .  A
O741       Al749   1.883       .  S
C742        O752   1.266       .  A
C742        O743   1.260       .  A
C742       C1237   1.486       .  S
O743       Al745   1.890       .  S
O744        C746   1.259       .  A
O744       Al745   1.892       .  S
Al745       O753   1.865       .  S
Al745       O755   1.891       .  S
Al745       O754   1.776       .  S
C746        O759   1.258       .  A
C746       C1276   1.470       .  S
O747        C757   1.262       .  A
O747       Al749   1.893       .  S
O748        C761   1.262       .  A
O748       Al758   1.919       .  S
Al749       O762   1.897       .  S
Al749       O759   1.910       .  S
Al749       O754   1.788       .  S
O750        C757   1.269       .  A
O750       Al758   1.933       .  S
O751        C760   1.265       .  A
O751       Al758   1.940       .  S
O752       Al758   1.927       .  S
O753        C760   1.254       .  A
O754       Al758   1.783       .  S
O755        C756   1.257       .  A
C756       C1225   1.444       .  S
C757       C1201   1.489       .  S
C760       C1213   1.480       .  S
C761        O762   1.259       .  A
C761       C1189   1.472       .  S
O763        C778   1.260       .  A
O763       Al771   1.870       .  S
C764        O774   1.265       .  A
C764        O765   1.262       .  A
C764       C1216   1.488       .  S
O765       Al767   1.899       .  S
O766        C768   1.257       .  A
O766       Al767   1.896       .  S
Al767       O775   1.851       .  S
Al767       O777   1.915       .  S
Al767       O776   1.777       .  S
C768        O781   1.256       .  A
C768       C1153   1.481       .  S
O769        C779   1.264       .  A
O769       Al771   1.881       .  S
O770        C783   1.263       .  A
O770       Al780   1.936       .  S
Al771       O784   1.896       .  S
Al771       O781   1.905       .  S
Al771       O776   1.781       .  S
O772        C779   1.276       .  A
O772       Al780   1.956       .  S
O773        C782   1.267       .  A
O773       Al780   1.956       .  S
O774       Al780   1.923       .  S
O775        C782   1.250       .  A
O776       Al780   1.779       .  S
O777        C778   1.267       .  A
C778       C1177   1.471       .  S
C779       C1141   1.484       .  S
C782       C1165   1.484       .  S
C783        O784   1.255       .  A
C783       C1252   1.476       .  S
O785        C800   1.259       .  A
O785       Al793   1.864       .  S
C786        O796   1.262       .  A
C786        O787   1.261       .  A
C786       C1129   1.481       .  S
O787       Al789   1.909       .  S
O788        C790   1.258       .  A
O788       Al789   1.889       .  S
Al789       O797   1.867       .  S
Al789       O799   1.911       .  S
Al789       O798   1.777       .  S
C790        O803   1.257       .  A
C790       C1117   1.487       .  S
O791        C801   1.261       .  A
O791       Al793   1.877       .  S
O792        C805   1.263       .  A
O792       Al802   1.922       .  S
Al793       O806   1.894       .  S
Al793       O803   1.908       .  S
Al793       O798   1.784       .  S
O794        C801   1.272       .  A
O794       Al802   1.951       .  S
O795        C804   1.270       .  A
O795       Al802   1.960       .  S
O796       Al802   1.920       .  S
O797        C804   1.255       .  A
O798       Al802   1.784       .  S
O799        C800   1.262       .  A
C800       C1108   1.456       .  S
C801       C1204   1.484       .  S
C804       C1096   1.499       .  S
C805        O806   1.258       .  A
C805       C1324   1.473       .  S
O807        C822   1.266       .  A
O807       Al815   1.875       .  S
C808        O818   1.262       .  A
C808        O809   1.262       .  A
C808       C1168   1.484       .  S
O809       Al811   1.901       .  S
O810        C812   1.258       .  A
O810       Al811   1.907       .  S
Al811       O819   1.866       .  S
Al811       O821   1.912       .  S
Al811       O820   1.781       .  S
C812        O825   1.252       .  A
C812       C1081   1.475       .  S
O813        C823   1.267       .  A
O813       Al815   1.892       .  S
O814        C827   1.258       .  A
O814       Al824   1.925       .  S
Al815       O828   1.884       .  S
Al815       O825   1.890       .  S
Al815       O820   1.779       .  S
O816        C823   1.276       .  A
O816       Al824   1.957       .  S
O817        C826   1.268       .  A
O817       Al824   1.955       .  S
O818       Al824   1.915       .  S
O819        C826   1.253       .  A
O820       Al824   1.784       .  S
O821        C822   1.266       .  A
C822       C1105   1.473   1_556  S
C823       C1057   1.481       .  S
C826       C1069   1.502       .  S
C827        O828   1.253       .  A
C827       C1045   1.466       .  S
O829        C844   1.265       .  A
O829       Al837   1.885       .  S
C830        O840   1.260       .  A
C830        O831   1.262       .  A
C830       C1036   1.491       .  S
O831       Al833   1.912       .  S
O832        C834   1.260       .  A
O832       Al833   1.901       .  S
Al833       O841   1.859       .  S
Al833       O843   1.910       .  S
Al833       O842   1.784       .  S
C834        O847   1.256       .  A
C834       C1360   1.472       .  S
O835        C845   1.261       .  A
O835       Al837   1.876       .  S
O836        C849   1.259       .  A
O836       Al846   1.931       .  S
Al837       O850   1.889       .  S
Al837       O847   1.904       .  S
Al837       O842   1.780       .  S
O838        C845   1.275       .  A
O838       Al846   1.958       .  S
O839        C848   1.269       .  A
O839       Al846   1.958       .  S
O840       Al846   1.908       .  S
O841        C848   1.252       .  A
O842       Al846   1.791       .  S
O843        C844   1.263       .  A
C844       C1021   1.479       .  S
C845       C1144   1.488       .  S
C848       C1132   1.482       .  S
C849        O850   1.259       .  A
C849       C1012   1.478       .  S
O851        C866   1.267       .  A
O851       Al859   1.886       .  S
C852        O862   1.271       .  A
C852        O853   1.265       .  A
C852       C1372   1.484       .  S
O853       Al855   1.891       .  S
O854        C856   1.257       .  A
O854       Al855   1.913       .  S
Al855       O863   1.880       .  S
Al855       O865   1.902       .  S
Al855       O864   1.776       .  S
C856        O869   1.243       .  A
C856        C997   1.465       .  S
O857        C867   1.265       .  A
O857       Al859   1.893       .  S
O858        C871   1.271       .  A
O858       Al868   1.972       .  S
Al859       O872   1.886       .  S
Al859       O869   1.847       .  S
Al859       O864   1.777       .  S
O860        C867   1.272       .  A
O860       Al868   1.943       .  S
O861        C870   1.257       .  A
O861       Al868   1.918       .  S
O862       Al868   1.930       .  S
O863        C870   1.254       .  A
O864       Al868   1.782       .  S
O865        C866   1.266       .  A
C866       C1312   1.472       .  S
C867        C988   1.474       .  S
C870       C1240   1.489       .  S
C871        O872   1.251       .  A
C871       C1009   1.496       .  S
O873        C888   1.260       .  A
O873       Al881   1.875       .  S
C874        O884   1.268       .  A
C874        O875   1.266       .  A
C874       C1072   1.501       .  S
O875       Al877   1.916   1_556  S
O876        C878   1.259       .  A
O876       Al877   1.907       .  S
Al877       O885   1.864       .  S
Al877       O887   1.923       .  S
Al877       O886   1.775       .  S
C878        O891   1.254       .  A
C878       C1120   1.468       .  S
O879        C889   1.259   1_554  A
O879       Al881   1.875       .  S
O880        C893   1.262       .  A
O880       Al890   1.931   1_554  S
Al881       O894   1.904       .  S
Al881       O891   1.899       .  S
Al881       O886   1.779       .  S
O882        C889   1.273       .  A
O882       Al890   1.955       .  S
O883        C892   1.267   1_556  A
O883       Al890   1.950       .  S
O884       Al890   1.932       .  S
O885        C892   1.254       .  A
O886       Al890   1.785   1_554  S
O887        C888   1.268       .  A
C888       C1024   1.478       .  S
C889       C1261   1.471       .  S
C892       C1348   1.488       .  S
C893        O894   1.259       .  A
C893        C976   1.480       .  S
O895        C910   1.262       .  A
O895       Al903   1.876       .  S
C896        O906   1.267       .  A
C896        O897   1.262       .  A
C896       C1093   1.491       .  S
O897       Al899   1.899       .  S
O898        C900   1.261       .  A
O898       Al899   1.904       .  S
Al899       O907   1.864       .  S
Al899       O909   1.908       .  S
Al899       O908   1.775       .  S
C900        O913   1.256       .  A
C900       C1084   1.476       .  S
O901        C911   1.260       .  A
O901       Al903   1.884       .  S
O902        C915   1.263       .  A
O902       Al912   1.936       .  S
Al903       O916   1.900       .  S
Al903       O913   1.896       .  S
Al903       O908   1.777       .  S
O904        C911   1.273       .  A
O904       Al912   1.951       .  S
O905        C914   1.267       .  A
O905       Al912   1.950       .  S
O906       Al912   1.932       .  S
O907        C914   1.255       .  A
O908       Al912   1.781       .  S
O909        C910   1.263       .  A
C910       C1180   1.467   1_554  S
C911        C985   1.474       .  S
C914        C961   1.487       .  S
C915        O916   1.258       .  A
C915        C973   1.480       .  S
O917        C932   1.270       .  A
O917       Al925   1.906       .  S
C918        O928   1.266       .  A
C918        O919   1.258       .  A
C918       C1300   1.491       .  S
O919       Al921   1.885       .  S
O920        C922   1.259       .  A
O920       Al921   1.899       .  S
Al921       O929   1.859       .  S
Al921       O931   1.896       .  S
Al921       O930   1.778       .  S
C922        O935   1.252       .  A
C922       C1000   1.468       .  S
O923        C933   1.264       .  A
O923       Al925   1.892       .  S
O924        C937   1.260       .  A
O924       Al934   1.934       .  S
Al925       O938   1.884       .  S
Al925       O935   1.883       .  S
Al925       O930   1.787       .  S
O926        C933   1.275       .  A
O926       Al934   1.958       .  S
O927        C936   1.269       .  A
O927       Al934   1.952       .  S
O928       Al934   1.940       .  S
O929        C936   1.254       .  A
O930       Al934   1.786       .  S
O931        C932   1.261       .  A
C932       C1384   1.478       .  S
C933       C1060   1.480       .  S
C936       C1033   1.493       .  S
C937        O938   1.253       .  A
C937       C1192   1.476       .  S
O939        C954   1.258       .  A
O939       Al947   1.864       .  S
C940        O950   1.265       .  A
C940        O941   1.262       .  A
C940        C964   1.484       .  S
O941       Al943   1.892   1_554  S
O942        C944   1.259       .  A
O942       Al943   1.903       .  S
Al943       O951   1.870       .  S
Al943       O953   1.910       .  S
Al943       O952   1.779       .  S
C944        O957   1.254       .  A
C944       C1156   1.473       .  S
O945        C955   1.262   1_556  A
O945       Al947   1.878       .  S
O946        C959   1.263       .  A
O946       Al956   1.929   1_556  S
Al947       O960   1.904       .  S
Al947       O957   1.898       .  S
Al947       O952   1.777       .  S
O948        C955   1.274       .  A
O948       Al956   1.953       .  S
O949        C958   1.268   1_554  A
O949       Al956   1.951       .  S
O950       Al956   1.923       .  S
O951        C958   1.254       .  A
O952       Al956   1.780   1_556  S
O953        C954   1.262       .  A
C954       C1228   1.444       .  S
C955       C1333   1.477       .  S
C958       C1288   1.494       .  S
C959        O960   1.258       .  A
C959       C1048   1.485       .  S
C961        C962   1.406   1_455  A
C961        C966   1.414       .  A
C962       C2355   1.411       .  A
C962        H967   1.085   1_655  S
C963       C2354   1.409       .  A
C963        C964   1.414       .  A
C963        C970   1.442       .  S
C964        C965   1.403       .  A
C965       C2358   1.396       .  A
C965        H968   1.085       .  S
C966       C2357   1.397   1_455  A
C966        C969   1.446       .  S
C969        N971   1.157       .  T
C970        N972   1.157       .  T
C973        C974   1.409       .  A
C973        C978   1.406       .  A
C974        C975   1.405       .  A
C974        H979   1.085       .  S
C975        C976   1.406       .  A
C975        C982   1.443   1_554  S
C976        C977   1.408       .  A
C977        C978   1.404       .  A
C977        H980   1.084       .  S
C978        C981   1.443       .  S
C981        N983   1.157       .  T
C982        N984   1.157       .  T
C985        C986   1.404       .  A
C985        C990   1.407       .  A
C986        C987   1.403       .  A
C986        H991   1.085       .  S
C987        C988   1.411       .  A
C987        C994   1.444       .  S
C988        C989   1.402       .  A
C989        C990   1.396       .  A
C989        H992   1.085       .  S
C990        C993   1.439       .  S
C993        N995   1.155       .  T
C994        N996   1.157       .  T
C997        C998   1.410       .  A
C998       H1003   1.085       .  S
C999       C1000   1.402       .  A
C1000      C1001   1.415       .  A
C1001      C1002   1.399       .  A
C1001      H1004   1.084       .  S
C1002      C1005   1.444       .  S
C1005      N1007   1.157       .  T
C1006      N1008   1.157       .  T
C1009      C1010   1.408       .  A
C1009      C1014   1.427       .  A
C1010      C1011   1.413       .  A
C1010      H1015   1.084       .  S
C1011      C1012   1.411       .  A
C1011      C1018   1.439       .  S
C1012      C1013   1.392       .  A
C1013      C1014   1.388       .  A
C1013      H1016   1.087       .  S
C1014      C1017   1.446       .  S
C1017      N1019   1.158       .  T
C1018      N1020   1.157       .  T
C1021      C1022   1.402       .  A
C1021      C1026   1.417       .  A
C1022      C1023   1.392       .  A
C1022      H1027   1.085       .  S
C1023      C1024   1.416       .  A
C1023      C1030   1.444       .  S
C1024      C1025   1.403       .  A
C1025      C1026   1.398       .  A
C1025      H1028   1.085       .  S
C1026      C1029   1.444       .  S
C1029      N1031   1.157       .  T
C1030      N1032   1.157       .  T
C1033      C1034   1.408       .  A
C1033      C1038   1.414       .  A
C1034      C2427   1.400       .  A
C1034      H1039   1.085       .  S
C1035      C2426   1.400   1_455  A
C1035      C1036   1.411       .  A
C1035      C1042   1.445       .  S
C1036      C1037   1.409       .  A
C1037      C2430   1.409       .  A
C1037      H1040   1.084       .  S
C1038      C2429   1.410       .  A
C1038      C1041   1.443       .  S
C1041      N1043   1.157       .  T
C1042      N1044   1.157       .  T
C1045      C1046   1.393       .  A
C1045      C1050   1.410       .  A
C1046      C1047   1.394       .  A
C1046      H1051   1.086       .  S
C1047      C1048   1.420       .  A
C1047      C1054   1.443       .  S
C1048      C1049   1.406       .  A
C1049      C1050   1.408       .  A
C1049      H1052   1.084       .  S
C1050      C1053   1.443       .  S
C1053      N1055   1.157       .  T
C1054      N1056   1.157       .  T
C1057      C1058   1.404       .  A
C1057      C1062   1.412       .  A
C1058      C1059   1.403       .  A
C1058      H1063   1.085       .  S
C1059      C1060   1.411       .  A
C1059      C1066   1.443       .  S
C1060      C1061   1.404       .  A
C1061      C1062   1.405       .  A
C1061      H1064   1.084       .  S
C1062      C1065   1.444       .  S
C1065      N1067   1.157       .  T
C1066      N1068   1.157       .  T
C1069      C1070   1.409       .  A
C1069      C1074   1.419       .  A
C1070      C1071   1.414       .  A
C1070      H1075   1.084       .  S
C1071      C1072   1.418       .  A
C1071      C1078   1.442       .  S
C1072      C1073   1.404       .  A
C1073      C1074   1.402       .  A
C1073      H1076   1.085       .  S
C1074      C1077   1.445       .  S
C1077      N1079   1.157       .  T
C1078      N1080   1.157       .  T
C1081      C1082   1.413   1_556  A
C1081      C1086   1.405       .  A
C1082      H1087   1.085       .  S
C1083      C1084   1.405   1_545  A
C1083      C1090   1.444       .  S
C1085      C1086   1.398       .  A
C1086      C1089   1.444       .  S
C1089      N1091   1.157       .  T
C1090      N1092   1.157       .  T
C1093      C1094   1.404       .  A
C1093      C1098   1.415       .  A
C1094      H1099   1.085       .  S
C1095      C1096   1.418       .  A
C1095      C1102   1.446       .  S
C1096      C1097   1.409       .  A
C1097      H1100   1.084       .  S
C1098      C1101   1.441       .  S
C1101      N1103   1.156       .  T
C1102      N1104   1.157       .  T
C1105      C1106   1.403       .  A
C1105      C1110   1.419       .  A
C1106      C1107   1.385       .  A
C1106      H1111   1.084       .  S
C1107      C1108   1.408       .  A
C1107      C1114   1.446       .  S
C1108      C1109   1.398       .  A
C1109      C1110   1.396       .  A
C1109      H1112   1.085       .  S
C1110      C1113   1.445       .  S
C1113      N1115   1.158       .  T
C1114      N1116   1.157       .  T
C1117      C1118   1.416       .  A
C1117      C1122   1.412       .  A
C1118      C1119   1.406       .  A
C1118      H1123   1.083       .  S
C1119      C1120   1.402       .  A
C1119      C1126   1.443       .  S
C1120      C1121   1.400       .  A
C1121      C1122   1.390       .  A
C1121      H1124   1.078       .  S
C1122      C1125   1.445       .  S
C1125      N1127   1.157       .  T
C1126      N1128   1.157       .  T
C1129      C1130   1.398       .  A
C1129      C1134   1.412       .  A
C1130      C1131   1.394       .  A
C1130      H1135   1.086       .  S
C1131      C1132   1.412       .  A
C1131      C1138   1.444       .  S
C1132      C1133   1.409       .  A
C1133      C1134   1.416       .  A
C1133      H1136   1.084       .  S
C1134      C1137   1.442       .  S
C1137      N1139   1.157       .  T
C1138      N1140   1.157       .  T
C1141      C1142   1.408       .  A
C1141      C1146   1.409       .  A
C1142      C1143   1.404       .  A
C1142      H1147   1.085       .  S
C1143      C1144   1.411       .  A
C1143      C1150   1.444       .  S
C1144      C1145   1.410       .  A
C1145      C1146   1.401       .  A
C1145      H1148   1.085       .  S
C1146      C1149   1.444       .  S
C1149      N1151   1.157       .  T
C1150      N1152   1.157       .  T
C1153      C1154   1.408       .  A
C1153      C2550   1.416       .  A
C1154      C1155   1.403       .  A
C1154      H1159   1.085       .  S
C1155      C2548   1.409   1_455  A
C1155      C1162   1.443   1_455  S
C1156      C2547   1.409       .  A
C1156      C1157   1.400       .  A
C1157      C1158   1.395       .  A
C1157      H1160   1.085       .  S
C1158      C2545   1.417       .  A
C1158      C1161   1.443       .  S
C1161      N1163   1.157       .  T
C1162      N1164   1.157       .  T
C1165      C1170   1.412   1_565  A
C1166      C1167   1.399       .  A
C1166      H1171   1.085       .  S
C1167      C1168   1.409       .  A
C1167      C1174   1.445       .  S
C1168      C1169   1.409       .  A
C1169      H1172   1.085       .  S
C1170      C1173   1.443   1_545  S
C1173      N1175   1.157       .  T
C1174      N1176   1.157       .  T
C1177      C1178   1.406       .  A
C1177      C1182   1.415       .  A
C1178      C1179   1.395       .  A
C1178      H1183   1.085       .  S
C1179      C1180   1.412       .  A
C1179      C1186   1.445       .  S
C1180      C1181   1.401       .  A
C1181      C1182   1.386       .  A
C1181      H1184   1.085       .  S
C1182      C1185   1.446       .  S
C1185      N1187   1.157       .  T
C1186      N1188   1.158       .  T
C1189      C1190   1.408       .  A
C1189      C1194   1.404       .  A
C1190      C1191   1.405       .  A
C1190      H1195   1.085       .  S
C1191      C1192   1.407       .  A
C1191      C1198   1.443       .  S
C1192      C1193   1.407       .  A
C1193      C1194   1.400       .  A
C1193      H1196   1.081       .  S
C1194      C1197   1.444       .  S
C1197      N1199   1.157       .  T
C1198      N1200   1.157       .  T
C1201      C1202   1.404       .  A
C1201      C1206   1.419       .  A
C1202      C1203   1.399       .  A
C1202      H1207   1.085       .  S
C1203      C1204   1.415       .  A
C1203      C1210   1.445       .  S
C1204      C1205   1.403       .  A
C1205      C1206   1.405       .  A
C1205      H1208   1.085       .  S
C1206      C1209   1.444       .  S
C1209      N1211   1.157       .  T
C1210      N1212   1.157       .  T
C1213      C1214   1.405       .  A
C1213      C2610   1.412       .  A
C1214      C2607   1.398       .  A
C1214      H1219   1.085       .  S
C1215      C2606   1.400   1_455  A
C1215      C1216   1.413       .  A
C1215      C1222   1.445       .  S
C1216      C1217   1.407       .  A
C1217      C1218   1.409       .  A
C1217      H1220   1.084       .  S
C1218      C2605   1.414   1_455  A
C1218      C1221   1.443   1_455  S
C1221      N1223   1.157       .  T
C1222      N1224   1.157       .  T
C1225      C1226   1.401       .  A
C1225      C1230   1.402       .  A
C1226      C1227   1.390       .  A
C1226      H1231   1.085       .  S
C1227      C1228   1.404       .  A
C1227      C1234   1.446       .  S
C1228      C1229   1.401       .  A
C1229      C1230   1.392       .  A
C1229      H1232   1.083       .  S
C1230      C1233   1.444       .  S
C1233      N1235   1.157       .  T
C1234      N1236   1.158       .  T
C1237      C1238   1.405       .  A
C1237      C1242   1.415       .  A
C1238      C1239   1.408       .  A
C1238      H1243   1.085       .  S
C1239      C1240   1.417       .  A
C1239      C1246   1.443       .  S
C1240      C1241   1.404       .  A
C1241      C1242   1.397       .  A
C1241      H1244   1.085       .  S
C1242      C1245   1.446       .  S
C1245      N1247   1.157       .  T
C1246      N1248   1.157       .  T
C1249      C1250   1.408       .  A
C1249      C1254   1.410       .  A
C1250      C1251   1.398       .  A
C1250      H1255   1.083       .  S
C1251      C1252   1.406       .  A
C1251      C1258   1.445       .  S
C1252      C1253   1.409       .  A
C1253      C1254   1.411       .  A
C1253      H1256   1.085       .  S
C1254      C1257   1.443       .  S
C1257      N1259   1.157       .  T
C1258      N1260   1.157       .  T
C1261      C1262   1.404       .  A
C1261      C1266   1.409       .  A
C1262      C1263   1.401       .  A
C1262      H1267   1.085       .  S
C1263      C1264   1.410       .  A
C1263      C1270   1.444       .  S
C1264      C1265   1.401       .  A
C1265      C1266   1.396       .  A
C1265      H1268   1.085       .  S
C1266      C1269   1.442       .  S
C1269      N1271   1.156       .  T
C1270      N1272   1.157       .  T
C1273      C1274   1.411       .  A
C1273      C1278   1.415       .  A
C1274      C1275   1.404       .  A
C1274      H1279   1.084       .  S
C1275      C1276   1.406       .  A
C1275      C1282   1.442       .  S
C1276      C1277   1.401       .  A
C1277      C1278   1.391       .  A
C1277      H1280   1.083       .  S
C1278      C1281   1.446       .  S
C1281      N1283   1.158       .  T
C1282      N1284   1.157       .  T
C1285      C1286   1.409       .  A
C1285      C1290   1.413       .  A
C1286      C1287   1.410       .  A
C1286      H1291   1.085       .  S
C1287      C1288   1.414       .  A
C1287      C1294   1.443       .  S
C1288      C1289   1.408       .  A
C1289      C1290   1.403       .  A
C1289      H1292   1.085       .  S
C1290      C1293   1.445       .  S
C1293      N1295   1.157       .  T
C1294      N1296   1.157       .  T
C1297      C1302   1.415   1_565  A
C1298      C1299   1.414       .  A
C1298      H1303   1.084       .  S
C1299      C1300   1.414       .  A
C1299      C1306   1.441       .  S
C1300      C1301   1.404       .  A
C1301      H1304   1.085       .  S
C1302      C1305   1.446   1_545  S
C1305      N1307   1.157       .  T
C1306      N1308   1.157       .  T
C1309      C1310   1.398       .  A
C1309      C1314   1.412       .  A
C1310      C1311   1.393       .  A
C1310      H1315   1.086       .  S
C1311      C1312   1.418       .  A
C1311      C1318   1.445       .  S
C1312      C1313   1.402       .  A
C1313      C1314   1.390       .  A
C1313      H1316   1.084       .  S
C1314      C1317   1.446       .  S
C1317      N1319   1.157       .  T
C1318      N1320   1.157       .  T
C1321      C1322   1.398       .  A
C1321      C1326   1.416       .  A
C1322      C1323   1.402       .  A
C1322      H1327   1.085       .  S
C1323      C1324   1.415       .  A
C1323      C1330   1.441       .  S
C1324      C1325   1.395       .  A
C1325      C1326   1.399       .  A
C1325      H1328   1.085       .  S
C1326      C1329   1.440       .  S
C1329      N1331   1.156       .  T
C1330      N1332   1.157       .  T
C1333      C1334   1.403       .  A
C1333      C1338   1.414       .  A
C1334      C1335   1.400       .  A
C1334      H1339   1.085       .  S
C1335      C1336   1.410       .  A
C1335      C1342   1.443       .  S
C1336      C1337   1.402       .  A
C1337      C1338   1.400       .  A
C1337      H1340   1.085       .  S
C1338      C1341   1.445       .  S
C1341      N1343   1.157       .  T
C1342      N1344   1.157       .  T
C1345      C1346   1.408       .  A
C1345      C1350   1.412       .  A
C1346      C1347   1.410       .  A
C1346      H1351   1.085       .  S
C1347      C2740   1.414       .  A
C1347      C1354   1.443       .  S
C1348      C2739   1.414   1_455  A
C1348      C1349   1.405       .  A
C1349      C2742   1.399   1_455  A
C1349      H1352   1.085       .  S
C1350      C2741   1.400       .  A
C1350      C1353   1.445       .  S
C1353      N1355   1.157       .  T
C1354      N1356   1.157   1_554  T
C1357      C1358   1.411       .  A
C1357      C1362   1.415       .  A
C1358      C2751   1.404       .  A
C1358      H1363   1.084       .  S
C1359      C2750   1.406   1_455  A
C1359      C1360   1.406       .  A
C1359      C1366   1.443       .  S
C1360      C1361   1.400       .  A
C1361      C2754   1.394       .  A
C1361      H1364   1.083       .  S
C1362      C2753   1.394       .  A
C1362      C1365   1.445       .  S
C1365      N1367   1.158       .  T
C1366      N1368   1.157       .  T
C1369      C1370   1.405       .  A
C1369      C1374   1.414       .  A
C1370      C1371   1.397       .  A
C1370      H1375   1.085       .  S
C1371      C1378   1.446       .  S
C1372      C1373   1.406       .  A
C1373      H1376   1.085       .  S
C1374      C1377   1.443       .  S
C1378      N1380   1.157       .  T
C1381      C1382   1.394       .  A
C1381      C1386   1.410       .  A
C1382      C1383   1.396       .  A
C1382      H1387   1.085       .  S
C1383      C1384   1.424       .  A
C1383      C1390   1.445       .  S
C1384      C1385   1.401       .  A
C1385      C1386   1.392       .  A
C1385      H1388   1.082       .  S
C1386      C1389   1.445       .  S
C1389      N1391   1.157       .  T
C1390      N1392   1.158       .  T
O1393      C1408   1.258       .  A
O1393     Al1401   1.858       .  S
C1394      O1404   1.265       .  A
C1394      O1395   1.265       .  A
C1394      C2041   1.487       .  S
O1395     Al1397   1.914       .  S
O1396      C1398   1.257       .  A
O1396     Al1397   1.895       .  S
Al1397     O1405   1.867       .  S
Al1397     O1407   1.929       .  S
Al1397     O1406   1.774       .  S
C1398      O1411   1.256       .  A
C1398      C2053   1.485       .  S
O1399      C1409   1.258       .  A
O1399     Al1401   1.879       .  S
O1400      C1413   1.265       .  A
O1400     Al1410   1.920       .  S
Al1401     O1414   1.910       .  S
Al1401     O1411   1.901       .  S
Al1401     O1406   1.778       .  S
O1402      C1409   1.269       .  A
O1402     Al1410   1.945       .  S
O1403      C1412   1.267       .  A
O1403     Al1410   1.950       .  S
O1404     Al1410   1.918       .  S
O1405      C1412   1.256       .  A
O1406     Al1410   1.784       .  S
O1407      C1408   1.265       .  A
C1408      C2077   1.461       .  S
C1409      C2032   1.471       .  S
C1412      C2065   1.489       .  S
C1413      O1414   1.263       .  A
C1413      C2017   1.476       .  S
O1415      C1430   1.258       .  A
O1415     Al1423   1.862       .  S
C1416      O1426   1.268       .  A
C1416      O1417   1.266       .  A
C1416      C1981   1.490       .  S
O1417     Al1419   1.917       .  S
O1418      C1420   1.256       .  A
O1418     Al1419   1.892       .  S
Al1419     O1427   1.870       .  S
Al1419     O1429   1.922       .  S
Al1419     O1428   1.767       .  S
C1420      O1433   1.257       .  A
C1420      C1969   1.482       .  S
O1421      C1431   1.260       .  A
O1421     Al1423   1.884       .  S
O1422      C1435   1.270       .  A
O1422     Al1432   1.938       .  S
Al1423     O1436   1.911       .  S
Al1423     O1433   1.906       .  S
Al1423     O1428   1.775       .  S
O1424      C1431   1.270       .  A
O1424     Al1432   1.940       .  S
O1425      C1434   1.267       .  A
O1425     Al1432   1.955       .  S
O1426     Al1432   1.923       .  S
O1427      C1434   1.255       .  A
O1428     Al1432   1.776       .  S
O1429      C1430   1.268       .  A
C1430      C2005   1.462       .  S
C1431      C1960   1.470       .  S
C1434      C1993   1.490       .  S
C1435      O1436   1.264       .  A
C1435      C1945   1.487       .  S
O1437      C1452   1.258       .  A
O1437     Al1445   1.879       .  S
C1438      O1448   1.266       .  A
C1438      O1439   1.261       .  A
C1438      C1933   1.486       .  S
O1439     Al1441   1.893       .  S
O1440      C1442   1.259       .  A
O1440     Al1441   1.893       .  S
Al1441     O1449   1.865       .  S
Al1441     O1451   1.888       .  S
Al1441     O1450   1.777       .  S
C1442      O1455   1.257       .  A
C1442      C1972   1.471       .  S
O1443      C1453   1.262       .  A
O1443     Al1445   1.890       .  S
O1444      C1457   1.262       .  A
O1444     Al1454   1.918       .  S
Al1445     O1458   1.898       .  S
Al1445     O1455   1.907       .  S
Al1445     O1450   1.789       .  S
O1446      C1453   1.269       .  A
O1446     Al1454   1.935       .  S
O1447      C1456   1.264       .  A
O1447     Al1454   1.940       .  S
O1448     Al1454   1.925       .  S
O1449      C1456   1.253       .  A
O1450     Al1454   1.784       .  S
O1451      C1452   1.257       .  A
C1452      C1921   1.442       .  S
C1453      C1897   1.488       .  S
C1456      C1909   1.481       .  S
C1457      O1458   1.260       .  A
C1457      C1885   1.472       .  S
O1459      C1474   1.260       .  A
O1459     Al1467   1.869       .  S
C1460      O1470   1.265       .  A
C1460      O1461   1.262       .  A
C1460      C1912   1.487       .  S
O1461     Al1463   1.900       .  S
O1462      C1464   1.257       .  A
O1462     Al1463   1.897       .  S
Al1463     O1471   1.851       .  S
Al1463     O1473   1.916       .  S
Al1463     O1472   1.778       .  S
C1464      O1477   1.255       .  A
C1464      C1849   1.480       .  S
O1465      C1475   1.264       .  A
O1465     Al1467   1.880       .  S
O1466      C1479   1.263       .  A
O1466     Al1476   1.935       .  S
Al1467     O1480   1.896       .  S
Al1467     O1477   1.902       .  S
Al1467     O1472   1.780       .  S
O1468      C1475   1.276       .  A
O1468     Al1476   1.957       .  S
O1469      C1478   1.268       .  A
O1469     Al1476   1.956       .  S
O1470     Al1476   1.921       .  S
O1471      C1478   1.250       .  A
O1472     Al1476   1.779       .  S
O1473      C1474   1.267       .  A
C1474      C1873   1.472       .  S
C1475      C1837   1.484       .  S
C1478      C1861   1.484       .  S
C1479      O1480   1.255       .  A
C1479      C1948   1.475       .  S
O1481      C1496   1.259       .  A
O1481     Al1489   1.862       .  S
C1482      O1492   1.262       .  A
C1482      O1483   1.261       .  A
C1482      C1825   1.482       .  S
O1483     Al1485   1.910       .  S
O1484      C1486   1.258       .  A
O1484     Al1485   1.888       .  S
Al1485     O1493   1.866       .  S
Al1485     O1495   1.911       .  S
Al1485     O1494   1.776       .  S
C1486      O1499   1.257       .  A
C1486      C1813   1.486       .  S
O1487      C1497   1.260       .  A
O1487     Al1489   1.875       .  S
O1488      C1501   1.262       .  A
O1488     Al1498   1.920       .  S
Al1489     O1502   1.894       .  S
Al1489     O1499   1.907       .  S
Al1489     O1494   1.783       .  S
O1490      C1497   1.273       .  A
O1490     Al1498   1.954       .  S
O1491      C1500   1.270       .  A
O1491     Al1498   1.962       .  S
O1492     Al1498   1.921       .  S
O1493      C1500   1.255       .  A
O1494     Al1498   1.783       .  S
O1495      C1496   1.262       .  A
C1496      C1804   1.455       .  S
C1497      C1900   1.484       .  S
C1500      C1792   1.501       .  S
C1501      O1502   1.258       .  A
C1501      C2020   1.471       .  S
O1503      C1518   1.266       .  A
O1503     Al1511   1.873       .  S
C1504      O1514   1.262       .  A
C1504      O1505   1.262       .  A
C1504      C1864   1.484       .  S
O1505     Al1507   1.902       .  S
O1506      C1508   1.257       .  A
O1506     Al1507   1.905       .  S
Al1507     O1515   1.865       .  S
Al1507     O1517   1.913       .  S
Al1507     O1516   1.779       .  S
C1508      O1521   1.251       .  A
C1508      C1777   1.475       .  S
O1509      C1519   1.267       .  A
O1509     Al1511   1.893       .  S
O1510      C1523   1.259       .  A
O1510     Al1520   1.926       .  S
Al1511     O1524   1.887       .  S
Al1511     O1521   1.889       .  S
Al1511     O1516   1.779       .  S
O1512      C1519   1.276       .  A
O1512     Al1520   1.957       .  S
O1513      C1522   1.268       .  A
O1513     Al1520   1.954       .  S
O1514     Al1520   1.915       .  S
O1515      C1522   1.252       .  A
O1516     Al1520   1.783       .  S
O1517      C1518   1.267       .  A
C1518      C1801   1.472   1_556  S
C1519      C1753   1.480       .  S
C1522      C1765   1.502       .  S
C1523      O1524   1.254       .  A
C1523      C1741   1.467       .  S
O1525      C1540   1.265       .  A
O1525     Al1533   1.883       .  S
C1526      O1536   1.260       .  A
C1526      O1527   1.263       .  A
C1526      C1732   1.489       .  S
O1527     Al1529   1.911       .  S
O1528      C1530   1.260       .  A
O1528     Al1529   1.901       .  S
Al1529     O1537   1.859       .  S
Al1529     O1539   1.911       .  S
Al1529     O1538   1.783       .  S
C1530      O1543   1.255       .  A
C1530      C2056   1.471       .  S
O1531      C1541   1.261       .  A
O1531     Al1533   1.875       .  S
O1532      C1545   1.259       .  A
O1532     Al1542   1.929       .  S
Al1533     O1546   1.889       .  S
Al1533     O1543   1.903       .  S
Al1533     O1538   1.780       .  S
O1534      C1541   1.275       .  A
O1534     Al1542   1.960       .  S
O1535      C1544   1.269       .  A
O1535     Al1542   1.958       .  S
O1536     Al1542   1.905       .  S
O1537      C1544   1.252       .  A
O1538     Al1542   1.790       .  S
O1539      C1540   1.263       .  A
C1540      C1717   1.478       .  S
C1541      C1840   1.488       .  S
C1544      C1828   1.482       .  S
C1545      O1546   1.259       .  A
C1545      C1708   1.477       .  S
O1547      C1562   1.268       .  A
O1547     Al1555   1.888       .  S
C1548      O1558   1.271       .  A
C1548      O1549   1.264       .  A
C1548      C2068   1.484       .  S
O1549     Al1551   1.889       .  S
O1550      C1552   1.257       .  A
O1550     Al1551   1.912       .  S
Al1551     O1559   1.877       .  S
Al1551     O1561   1.901       .  S
Al1551     O1560   1.775       .  S
C1552      O1565   1.244       .  A
C1552      C1693   1.465       .  S
O1553      C1563   1.265       .  A
O1553     Al1555   1.894       .  S
O1554      C1567   1.271       .  A
O1554     Al1564   1.971       .  S
Al1555     O1568   1.886       .  S
Al1555     O1565   1.848       .  S
Al1555     O1560   1.777       .  S
O1556      C1563   1.273       .  A
O1556     Al1564   1.944       .  S
O1557      C1566   1.258       .  A
O1557     Al1564   1.921       .  S
O1558     Al1564   1.932       .  S
O1559      C1566   1.253       .  A
O1560     Al1564   1.782       .  S
O1561      C1562   1.266       .  A
C1562      C2008   1.472       .  S
C1563      C1684   1.474       .  S
C1566      C1936   1.490       .  S
C1567      O1568   1.251       .  A
C1567      C1705   1.496       .  S
O1569      C1584   1.260       .  A
O1569     Al1577   1.875       .  S
C1570      O1580   1.268       .  A
C1570      O1571   1.266       .  A
C1570      C1768   1.500       .  S
O1571     Al1573   1.915   1_556  S
O1572      C1574   1.259       .  A
O1572     Al1573   1.907       .  S
Al1573     O1581   1.864       .  S
Al1573     O1583   1.921       .  S
Al1573     O1582   1.775       .  S
C1574      O1587   1.254       .  A
C1574      C1816   1.467       .  S
O1575      C1585   1.259   1_554  A
O1575     Al1577   1.875       .  S
O1576      C1589   1.262       .  A
O1576     Al1586   1.930   1_554  S
Al1577     O1590   1.904       .  S
Al1577     O1587   1.900       .  S
Al1577     O1582   1.779       .  S
O1578      C1585   1.273       .  A
O1578     Al1586   1.954       .  S
O1579      C1588   1.267   1_556  A
O1579     Al1586   1.950       .  S
O1580     Al1586   1.932       .  S
O1581      C1588   1.254       .  A
O1582     Al1586   1.784   1_554  S
O1583      C1584   1.268       .  A
C1584      C1720   1.477       .  S
C1585      C1957   1.470       .  S
C1588      C2044   1.488       .  S
C1589      O1590   1.259       .  A
C1589      C1672   1.479       .  S
O1591      C1606   1.262       .  A
O1591     Al1599   1.876       .  S
C1592      O1602   1.267       .  A
C1592      O1593   1.262       .  A
C1592      C1789   1.491       .  S
O1593     Al1595   1.899       .  S
O1594      C1596   1.261       .  A
O1594     Al1595   1.903       .  S
Al1595     O1603   1.864       .  S
Al1595     O1605   1.908       .  S
Al1595     O1604   1.776       .  S
C1596      O1609   1.256       .  A
C1596      C1780   1.476       .  S
O1597      C1607   1.261       .  A
O1597     Al1599   1.886       .  S
O1598      C1611   1.263       .  A
O1598     Al1608   1.936       .  S
Al1599     O1612   1.899       .  S
Al1599     O1609   1.895       .  S
Al1599     O1604   1.777       .  S
O1600      C1607   1.273       .  A
O1600     Al1608   1.950       .  S
O1601      C1610   1.267       .  A
O1601     Al1608   1.946       .  S
O1602     Al1608   1.931       .  S
O1603      C1610   1.255       .  A
O1604     Al1608   1.781       .  S
O1605      C1606   1.263       .  A
C1606      C1876   1.465   1_554  S
C1607      C1681   1.474       .  S
C1610      C1657   1.485       .  S
C1611      O1612   1.258       .  A
C1611      C1669   1.479       .  S
O1613      C1628   1.270       .  A
O1613     Al1621   1.906       .  S
C1614      O1624   1.265       .  A
C1614      O1615   1.258       .  A
C1614      C1996   1.489       .  S
O1615     Al1617   1.886       .  S
O1616      C1618   1.259       .  A
O1616     Al1617   1.898       .  S
Al1617     O1625   1.858       .  S
Al1617     O1627   1.898       .  S
Al1617     O1626   1.777       .  S
C1618      O1631   1.251       .  A
C1618      C1696   1.468       .  S
O1619      C1629   1.264       .  A
O1619     Al1621   1.892       .  S
O1620      C1633   1.260       .  A
O1620     Al1630   1.930       .  S
Al1621     O1634   1.885       .  S
Al1621     O1631   1.882       .  S
Al1621     O1626   1.787       .  S
O1622      C1629   1.276       .  A
O1622     Al1630   1.958       .  S
O1623      C1632   1.268       .  A
O1623     Al1630   1.950       .  S
O1624     Al1630   1.935       .  S
O1625      C1632   1.254       .  A
O1626     Al1630   1.786       .  S
O1627      C1628   1.262       .  A
C1628      C2080   1.479       .  S
C1629      C1756   1.480       .  S
C1632      C1729   1.491       .  S
C1633      O1634   1.254       .  A
C1633      C1888   1.474       .  S
O1635      C1650   1.260       .  A
O1635     Al1643   1.868       .  S
C1636      O1646   1.266       .  A
C1636      O1637   1.261       .  A
C1636      C1660   1.485       .  S
O1637     Al1639   1.888   1_554  S
O1638      C1640   1.259       .  A
O1638     Al1639   1.903       .  S
Al1639     O1647   1.868       .  S
Al1639     O1649   1.907       .  S
Al1639     O1648   1.780       .  S
C1640      O1653   1.253       .  A
C1640      C1852   1.473       .  S
O1641      C1651   1.263   1_556  A
O1641     Al1643   1.880       .  S
O1642      C1655   1.265       .  A
O1642     Al1652   1.939   1_556  S
Al1643     O1656   1.899       .  S
Al1643     O1653   1.894       .  S
Al1643     O1648   1.776       .  S
O1644      C1651   1.274       .  A
O1644     Al1652   1.951       .  S
O1645      C1654   1.268   1_554  A
O1645     Al1652   1.950       .  S
O1646     Al1652   1.928       .  S
O1647      C1654   1.254       .  A
O1648     Al1652   1.779   1_556  S
O1649      C1650   1.262       .  A
C1650      C1924   1.446       .  S
C1651      C2029   1.477       .  S
C1654      C1984   1.492       .  S
C1655      O1656   1.257       .  A
C1655      C1744   1.487       .  S
C1657      C1658   1.406       .  A
C1657      C1662   1.413       .  A
C1658      H1663   1.085       .  S
C1659      C1660   1.414       .  A
C1659      C1666   1.442       .  S
C1660      C1661   1.404       .  A
C1661      H1664   1.085       .  S
C1662      C1665   1.446       .  S
C1665      N1667   1.157       .  T
C1666      N1668   1.157       .  T
C1669      C1670   1.409       .  A
C1669      C1674   1.405       .  A
C1670      C1671   1.405       .  A
C1670      H1675   1.084       .  S
C1671      C1672   1.406       .  A
C1671      C1678   1.443   1_554  S
C1672      C1673   1.408       .  A
C1673      C1674   1.404       .  A
C1673      H1676   1.084       .  S
C1674      C1677   1.442       .  S
C1677      N1679   1.157       .  T
C1678      N1680   1.157       .  T
C1681      C1682   1.404       .  A
C1681      C1686   1.407       .  A
C1682      C1683   1.404       .  A
C1682      H1687   1.085       .  S
C1683      C1684   1.411       .  A
C1683      C1690   1.444       .  S
C1684      C1685   1.402       .  A
C1685      C1686   1.396       .  A
C1685      H1688   1.085       .  S
C1686      C1689   1.439       .  S
C1689      N1691   1.155       .  T
C1690      N1692   1.157       .  T
C1693      C1694   1.411       .  A
C1693      C2394   1.399       .  A
C1694      C2391   1.393       .  A
C1694      H1699   1.085       .  S
C1695      C2390   1.391   1_545  A
C1695      C1696   1.402       .  A
C1695      C2398   1.445   1_545  S
C1696      C1697   1.416       .  A
C1697      C1698   1.399       .  A
C1697      H1700   1.084       .  S
C1698      C2389   1.398   1_545  A
C1698      C1701   1.443       .  S
C1701      N1703   1.157       .  T
C1702      C2391   1.444       .  S
C1702      N1704   1.157       .  T
C1705      C1706   1.408       .  A
C1705      C1710   1.427       .  A
C1706      C1707   1.413       .  A
C1706      H1711   1.084       .  S
C1707      C1708   1.411       .  A
C1707      C1714   1.439       .  S
C1708      C1709   1.392       .  A
C1709      C1710   1.387       .  A
C1709      H1712   1.087       .  S
C1710      C1713   1.445       .  S
C1713      N1715   1.158       .  T
C1714      N1716   1.157       .  T
C1717      C1718   1.402       .  A
C1717      C1722   1.416       .  A
C1718      C1719   1.392       .  A
C1718      H1723   1.085       .  S
C1719      C1720   1.416       .  A
C1719      C1726   1.444       .  S
C1720      C1721   1.403       .  A
C1721      C1722   1.397       .  A
C1721      H1724   1.085       .  S
C1722      C1725   1.445       .  S
C1725      N1727   1.157       .  T
C1726      N1728   1.157       .  T
C1729      C1730   1.408       .  A
C1729      C1734   1.413       .  A
C1730      H1735   1.085       .  S
C1731      C1732   1.411       .  A
C1731      C1738   1.445       .  S
C1732      C1733   1.409       .  A
C1733      H1736   1.084       .  S
C1734      C1737   1.443       .  S
C1737      N1739   1.157       .  T
C1738      N1740   1.157       .  T
C1741      C1742   1.392       .  A
C1741      C1746   1.411       .  A
C1742      C1743   1.393       .  A
C1742      H1747   1.086       .  S
C1743      C1744   1.422       .  A
C1743      C1750   1.444       .  S
C1744      C1745   1.407       .  A
C1745      C1746   1.409       .  A
C1745      H1748   1.084       .  S
C1746      C1749   1.443       .  S
C1749      N1751   1.157       .  T
C1750      N1752   1.157       .  T
C1753      C1754   1.403       .  A
C1753      C1758   1.412       .  A
C1754      C1755   1.402       .  A
C1754      H1759   1.085       .  S
C1755      C1756   1.410       .  A
C1755      C1762   1.442       .  S
C1756      C1757   1.405       .  A
C1757      C1758   1.405       .  A
C1757      H1760   1.085       .  S
C1758      C1761   1.444       .  S
C1761      N1763   1.157       .  T
C1762      N1764   1.157       .  T
C1765      C1766   1.409       .  A
C1765      C1770   1.419       .  A
C1766      C1767   1.414       .  A
C1766      H1771   1.084       .  S
C1767      C1768   1.418       .  A
C1767      C1774   1.442       .  S
C1768      C1769   1.404       .  A
C1769      C1770   1.401       .  A
C1769      H1772   1.085       .  S
C1770      C1773   1.445       .  S
C1773      N1775   1.157       .  T
C1774      N1776   1.157       .  T
C1777      C1778   1.414   1_556  A
C1777      C1782   1.405   1_545  A
C1778      C2475   1.400       .  A
C1778      H1783   1.085       .  S
C1779      C2474   1.397       .  A
C1779      C1780   1.405       .  A
C1779      C1786   1.444       .  S
C1780      C2477   1.413   1_554  A
C1781      C2476   1.409   1_556  A
C1781      C1782   1.397       .  A
C1781      H2480   1.084       .  S
C1782      C1785   1.444       .  S
H1784      C2477   1.085       .  S
C1785      N1787   1.157       .  T
C1786      N1788   1.157       .  T
C1789      C1790   1.404       .  A
C1789      C1794   1.415       .  A
C1790      C2487   1.399       .  A
C1790      H1795   1.085       .  S
C1791      C2486   1.398   1_545  A
C1791      C1792   1.419       .  A
C1791      C1798   1.446       .  S
C1792      C1793   1.410       .  A
C1793      C2490   1.415   1_545  A
C1793      H1796   1.084       .  S
C1794      C2489   1.411       .  A
C1794      C1797   1.441       .  S
C1797      N1799   1.156       .  T
C1798      N1800   1.158       .  T
C1801      C1802   1.403       .  A
C1801      C1806   1.419       .  A
C1802      C1803   1.385       .  A
C1802      H1807   1.084       .  S
C1803      C1804   1.408       .  A
C1803      C1810   1.446       .  S
C1804      C1805   1.398       .  A
C1805      C1806   1.396       .  A
C1805      H1808   1.085       .  S
C1806      C1809   1.445       .  S
C1809      N1811   1.157       .  T
C1810      N1812   1.157       .  T
C1813      C1814   1.417       .  A
C1813      C1818   1.412       .  A
C1814      C1815   1.406       .  A
C1814      H1819   1.084       .  S
C1815      C1816   1.402       .  A
C1815      C1822   1.443       .  S
C1816      C1817   1.400       .  A
C1817      C1818   1.390       .  A
C1817      H1820   1.078       .  S
C1818      C1821   1.445       .  S
C1821      N1823   1.157       .  T
C1822      N1824   1.157       .  T
C1825      C1826   1.398       .  A
C1825      C1830   1.412       .  A
C1826      C1827   1.394       .  A
C1826      H1831   1.086       .  S
C1827      C1828   1.412       .  A
C1827      C1834   1.444       .  S
C1828      C1829   1.409       .  A
C1829      C1830   1.416       .  A
C1829      H1832   1.084       .  S
C1830      C1833   1.442       .  S
C1833      N1835   1.157       .  T
C1834      N1836   1.157       .  T
C1837      C1838   1.409       .  A
C1837      C1842   1.409       .  A
C1838      C1839   1.404       .  A
C1838      H1843   1.085       .  S
C1839      C1840   1.411       .  A
C1839      C1846   1.444       .  S
C1840      C1841   1.410       .  A
C1841      C1842   1.401       .  A
C1841      H1844   1.085       .  S
C1842      C1845   1.444       .  S
C1845      N1847   1.157       .  T
C1846      N1848   1.157       .  T
C1849      C1850   1.408       .  A
C1850      C1851   1.402       .  A
C1850      H1855   1.085       .  S
C1851      C1858   1.443       .  S
C1852      C1853   1.399       .  A
C1853      C1854   1.395   1_655  A
C1853      H1856   1.085       .  S
C1854      C1857   1.443       .  S
C1857      N1859   1.157       .  T
C1858      N1860   1.157       .  T
C1861      C2558   1.408       .  A
C1861      C1866   1.412       .  A
C1862      C2557   1.408   1_545  A
C1862      C1863   1.398       .  A
C1862      H1867   1.085   1_545  S
C1863      C1864   1.409       .  A
C1863      C1870   1.445       .  S
C1864      C1865   1.409       .  A
C1865      C2562   1.411       .  A
C1865      H1868   1.085       .  S
C1866      C2561   1.409       .  A
C1866      C1869   1.443       .  S
C1869      N1871   1.157       .  T
C1870      N1872   1.157       .  T
C1873      C1874   1.407       .  A
C1873      C1878   1.416       .  A
C1874      C1875   1.395       .  A
C1874      H1879   1.085       .  S
C1875      C1876   1.411       .  A
C1875      C1882   1.445       .  S
C1876      C1877   1.401       .  A
C1877      C1878   1.386       .  A
C1877      H1880   1.085       .  S
C1878      C1881   1.446       .  S
C1881      N1883   1.157       .  T
C1882      N1884   1.158       .  T
C1885      C1886   1.408       .  A
C1885      C1890   1.404       .  A
C1886      C1887   1.404       .  A
C1886      H1891   1.085       .  S
C1887      C1888   1.406       .  A
C1887      C1894   1.443       .  S
C1888      C1889   1.406       .  A
C1889      C1890   1.399       .  A
C1889      H1892   1.082       .  S
C1890      C1893   1.444       .  S
C1893      N1895   1.157       .  T
C1894      N1896   1.157       .  T
C1897      C1898   1.403       .  A
C1897      C1902   1.418       .  A
C1898      C1899   1.399       .  A
C1898      H1903   1.085       .  S
C1899      C1900   1.415       .  A
C1899      C1906   1.445       .  S
C1900      C1901   1.403       .  A
C1901      C1902   1.405       .  A
C1901      H1904   1.085       .  S
C1902      C1905   1.444       .  S
C1905      N1907   1.157       .  T
C1906      N1908   1.157       .  T
C1909      C1910   1.405       .  A
C1910      H1915   1.085       .  S
C1911      C1912   1.412       .  A
C1911      C1918   1.445       .  S
C1912      C1913   1.407       .  A
C1913      C1914   1.408       .  A
C1913      H1916   1.084       .  S
C1914      C1917   1.443       .  S
C1917      N1919   1.157       .  T
C1918      N1920   1.157       .  T
C1921      C1922   1.400       .  A
C1921      C1926   1.402       .  A
C1922      C1923   1.389       .  A
C1922      H1927   1.085       .  S
C1923      C1924   1.405       .  A
C1923      C1930   1.446       .  S
C1924      C1925   1.401       .  A
C1925      C1926   1.392       .  A
C1925      H1928   1.083       .  S
C1926      C1929   1.444       .  S
C1929      N1931   1.157       .  T
C1930      N1932   1.157       .  T
C1933      C1934   1.406       .  A
C1933      C1938   1.414       .  A
C1934      C1935   1.409       .  A
C1934      H1939   1.085       .  S
C1935      C1936   1.416       .  A
C1935      C1942   1.443       .  S
C1936      C1937   1.404       .  A
C1937      C1938   1.397       .  A
C1937      H1940   1.085       .  S
C1938      C1941   1.446       .  S
C1941      N1943   1.157       .  T
C1942      N1944   1.157       .  T
C1945      C1946   1.408       .  A
C1945      C1950   1.411       .  A
C1946      C1947   1.398       .  A
C1946      H1951   1.084       .  S
C1947      C1948   1.406       .  A
C1947      C1954   1.445       .  S
C1948      C1949   1.409       .  A
C1949      C1950   1.411       .  A
C1949      H1952   1.085       .  S
C1950      C1953   1.443       .  S
C1953      N1955   1.157       .  T
C1954      N1956   1.157       .  T
C1957      C1958   1.404       .  A
C1957      C1962   1.409       .  A
C1958      C1959   1.401       .  A
C1958      H1963   1.085       .  S
C1959      C1960   1.411       .  A
C1959      C1966   1.445       .  S
C1960      C1961   1.401       .  A
C1961      C1962   1.396       .  A
C1961      H1964   1.085       .  S
C1962      C1965   1.442       .  S
C1965      N1967   1.156       .  T
C1966      N1968   1.157       .  T
C1969      C1970   1.411       .  A
C1969      C1974   1.414       .  A
C1970      C1971   1.404       .  A
C1970      H1975   1.084       .  S
C1971      C1972   1.406       .  A
C1971      C1978   1.442       .  S
C1972      C1973   1.402       .  A
C1973      C1974   1.391       .  A
C1973      H1976   1.083       .  S
C1974      C1977   1.446       .  S
C1977      N1979   1.158       .  T
C1978      N1980   1.157       .  T
C1981      C1982   1.408       .  A
C1981      C1986   1.412       .  A
C1982      C1983   1.409       .  A
C1982      H1987   1.085       .  S
C1983      C1984   1.413       .  A
C1983      C1990   1.443       .  S
C1984      C1985   1.408       .  A
C1985      C1986   1.403       .  A
C1985      H1988   1.085       .  S
C1986      C1989   1.445       .  S
C1989      N1991   1.157       .  T
C1990      N1992   1.157       .  T
C1993      C2690   1.407       .  A
C1993      C1998   1.414       .  A
C1994      C2689   1.407   1_545  A
C1994      C1995   1.413       .  A
C1994      H1999   1.084   1_545  S
C1995      C1996   1.414       .  A
C1995      C2002   1.441       .  S
C1996      C1997   1.404       .  A
C1997      C2694   1.398       .  A
C1997      H2000   1.085       .  S
C1998      C2693   1.398       .  A
C1998      C2001   1.446       .  S
C2001      N2003   1.157       .  T
C2002      N2004   1.157       .  T
C2005      C2006   1.398       .  A
C2005      C2010   1.412       .  A
C2006      C2007   1.393       .  A
C2006      H2011   1.086       .  S
C2007      C2008   1.418       .  A
C2007      C2014   1.445       .  S
C2008      C2009   1.402       .  A
C2009      C2010   1.391       .  A
C2009      H2012   1.084       .  S
C2010      C2013   1.446       .  S
C2013      N2015   1.157       .  T
C2014      N2016   1.157       .  T
C2017      C2018   1.398       .  A
C2017      C2022   1.416       .  A
C2018      C2019   1.402       .  A
C2018      H2023   1.085       .  S
C2019      C2020   1.415       .  A
C2019      C2026   1.441       .  S
C2020      C2021   1.395       .  A
C2021      C2022   1.399       .  A
C2021      H2024   1.086       .  S
C2022      C2025   1.439       .  S
C2025      N2027   1.156       .  T
C2026      N2028   1.156       .  T
C2029      C2030   1.404       .  A
C2029      C2034   1.414       .  A
C2030      C2031   1.400       .  A
C2030      H2035   1.085       .  S
C2031      C2032   1.410       .  A
C2031      C2038   1.443       .  S
C2032      C2033   1.402       .  A
C2033      C2034   1.400       .  A
C2033      H2036   1.085       .  S
C2034      C2037   1.445       .  S
C2037      N2039   1.157       .  T
C2038      N2040   1.157       .  T
C2041      C2042   1.408       .  A
C2041      C2046   1.411       .  A
C2042      C2043   1.410       .  A
C2042      H2047   1.085       .  S
C2043      C2050   1.443   1_655  S
C2044      C2045   1.405       .  A
C2045      H2048   1.085       .  S
C2046      C2049   1.445       .  S
C2049      N2051   1.157       .  T
C2050      N2052   1.157   1_554  T
C2053      C2054   1.411       .  A
C2053      C2058   1.415   1_655  A
C2054      H2059   1.084       .  S
C2055      C2056   1.406       .  A
C2055      C2062   1.443       .  S
C2056      C2057   1.400       .  A
C2057      H2060   1.083       .  S
C2058      C2061   1.445       .  S
C2061      N2063   1.158       .  T
C2062      N2064   1.157       .  T
C2065      C2066   1.406       .  A
C2065      C2070   1.414       .  A
C2066      C2067   1.397   1_545  A
C2066      H2071   1.085       .  S
C2067      C2764   1.412       .  A
C2067      C2074   1.446       .  S
C2068      C2763   1.412       .  A
C2068      C2069   1.407       .  A
C2069      C2766   1.410       .  A
C2069      H2072   1.085       .  S
C2070      C2765   1.410   1_545  A
C2070      C2073   1.443       .  S
C2073      N2771   1.157       .  T
C2074      N2076   1.157       .  T
N2075      C2769   1.157       .  T
C2077      C2078   1.394       .  A
C2077      C2082   1.411       .  A
C2078      C2079   1.397       .  A
C2078      H2083   1.085       .  S
C2079      C2080   1.424       .  A
C2079      C2086   1.445       .  S
C2080      C2081   1.401       .  A
C2081      C2082   1.392       .  A
C2081      H2084   1.082       .  S
C2082      C2085   1.445       .  S
C2085      N2087   1.157       .  T
C2086      N2088   1.158       .  T
O2089      C2104   1.258       .  A
O2089     Al2097   1.855       .  S
C2090      O2100   1.266       .  A
C2090      O2091   1.265       .  A
C2090      C2737   1.489       .  S
O2091     Al2093   1.912       .  S
O2092      C2094   1.258       .  A
O2092     Al2093   1.896       .  S
Al2093     O2101   1.874       .  S
Al2093     O2103   1.919       .  S
Al2093     O2102   1.774       .  S
C2094      O2107   1.257       .  A
C2094      C2749   1.487       .  S
O2095      C2105   1.258       .  A
O2095     Al2097   1.880       .  S
O2096      C2109   1.265       .  A
O2096     Al2106   1.920       .  S
Al2097     O2110   1.914       .  S
Al2097     O2107   1.906       .  S
Al2097     O2102   1.779       .  S
O2098      C2105   1.269       .  A
O2098     Al2106   1.945       .  S
O2099      C2108   1.267       .  A
O2099     Al2106   1.949       .  S
O2100     Al2106   1.921       .  S
O2101      C2108   1.256       .  A
O2102     Al2106   1.783       .  S
O2103      C2104   1.264       .  A
C2104      C2773   1.458       .  S
C2105      C2728   1.472       .  S
C2108      C2761   1.490       .  S
C2109      O2110   1.264       .  A
C2109      C2713   1.478       .  S
O2111      C2126   1.258       .  A
O2111     Al2119   1.863       .  S
C2112      O2122   1.267       .  A
C2112      O2113   1.266       .  A
C2112      C2677   1.492       .  S
O2113     Al2115   1.920       .  S
O2114      C2116   1.256       .  A
O2114     Al2115   1.891       .  S
Al2115     O2123   1.868       .  S
Al2115     O2125   1.932       .  S
Al2115     O2124   1.764       .  S
C2116      O2129   1.258       .  A
C2116      C2665   1.481       .  S
O2117      C2127   1.259       .  A
O2117     Al2119   1.881       .  S
O2118      C2131   1.268       .  A
O2118     Al2128   1.934       .  S
Al2119     O2132   1.911       .  S
Al2119     O2129   1.909       .  S
Al2119     O2124   1.774       .  S
O2120      C2127   1.271       .  A
O2120     Al2128   1.940       .  S
O2121      C2130   1.268       .  A
O2121     Al2128   1.957       .  S
O2122     Al2128   1.924       .  S
O2123      C2130   1.255       .  A
O2124     Al2128   1.777       .  S
O2125      C2126   1.269       .  A
C2126      C2701   1.471       .  S
C2127      C2656   1.468       .  S
C2130      C2689   1.490       .  S
C2131      O2132   1.264       .  A
C2131      C2641   1.483       .  S
O2133      C2148   1.259       .  A
O2133     Al2141   1.876       .  S
C2134      O2144   1.266       .  A
C2134      O2135   1.261       .  A
C2134      C2629   1.486       .  S
O2135     Al2137   1.896       .  S
O2136      C2138   1.260       .  A
O2136     Al2137   1.895       .  S
Al2137     O2145   1.867       .  S
Al2137     O2147   1.888       .  S
Al2137     O2146   1.778       .  S
C2138      O2151   1.255       .  A
C2138      C2668   1.470       .  S
O2139      C2149   1.261       .  A
O2139     Al2141   1.890       .  S
O2140      C2153   1.262       .  A
O2140     Al2150   1.919       .  S
Al2141     O2154   1.898       .  S
Al2141     O2151   1.903       .  S
Al2141     O2146   1.790       .  S
O2142      C2149   1.271       .  A
O2142     Al2150   1.940       .  S
O2143      C2152   1.265       .  A
O2143     Al2150   1.945       .  S
O2144     Al2150   1.926       .  S
O2145      C2152   1.253       .  A
O2146     Al2150   1.784       .  S
O2147      C2148   1.258       .  A
C2148      C2617   1.441       .  S
C2149      C2593   1.493       .  S
C2152      C2605   1.488       .  S
C2153      O2154   1.259       .  A
C2153      C2581   1.473       .  S
O2155      C2170   1.261       .  A
O2155     Al2163   1.873       .  S
C2156      O2166   1.262       .  A
C2156      O2157   1.263       .  A
C2156      C2608   1.480       .  S
O2157     Al2159   1.901       .  S
O2158      C2160   1.258       .  A
O2158     Al2159   1.899       .  S
Al2159     O2167   1.847       .  S
Al2159     O2169   1.913       .  S
Al2159     O2168   1.775       .  S
C2160      O2173   1.256       .  A
C2160      C2545   1.484       .  S
O2161      C2171   1.264       .  A
O2161     Al2163   1.880       .  S
O2162      C2175   1.260       .  A
O2162     Al2172   1.926       .  S
Al2163     O2176   1.899       .  S
Al2163     O2173   1.910       .  S
Al2163     O2168   1.782       .  S
O2164      C2171   1.278       .  A
O2164     Al2172   1.962       .  S
O2165      C2174   1.268       .  A
O2165     Al2172   1.959       .  S
O2166     Al2172   1.909       .  S
O2167      C2174   1.250       .  A
O2168     Al2172   1.781       .  S
O2169      C2170   1.267       .  A
C2170      C2569   1.472       .  S
C2171      C2533   1.486       .  S
C2174      C2557   1.487       .  S
C2175      O2176   1.256       .  A
C2175      C2644   1.472       .  S
O2177      C2192   1.259       .  A
O2177     Al2185   1.865       .  S
C2178      O2188   1.262       .  A
C2178      O2179   1.261       .  A
C2178      C2521   1.481       .  S
O2179     Al2181   1.911       .  S
O2180      C2182   1.257       .  A
O2180     Al2181   1.886       .  S
Al2181     O2189   1.866       .  S
Al2181     O2191   1.914       .  S
Al2181     O2190   1.777       .  S
C2182      O2195   1.258       .  A
C2182      C2509   1.487       .  S
O2183      C2193   1.261       .  A
O2183     Al2185   1.881       .  S
O2184      C2197   1.264       .  A
O2184     Al2194   1.924       .  S
Al2185     O2198   1.894       .  S
Al2185     O2195   1.910       .  S
Al2185     O2190   1.783       .  S
O2186      C2193   1.271       .  A
O2186     Al2194   1.948       .  S
O2187      C2196   1.269       .  A
O2187     Al2194   1.954       .  S
O2188     Al2194   1.921       .  S
O2189      C2196   1.255       .  A
O2190     Al2194   1.783       .  S
O2191      C2192   1.263       .  A
C2192      C2500   1.460       .  S
C2193      C2596   1.481       .  S
C2196      C2488   1.492       .  S
C2197      O2198   1.258       .  A
C2197      C2716   1.472       .  S
O2199      C2214   1.267       .  A
O2199     Al2207   1.874       .  S
C2200      O2210   1.261       .  A
C2200      O2201   1.262       .  A
C2200      C2560   1.482       .  S
O2201     Al2203   1.905       .  S
O2202      C2204   1.257       .  A
O2202     Al2203   1.910       .  S
Al2203     O2211   1.867       .  S
Al2203     O2213   1.917       .  S
Al2203     O2212   1.780       .  S
C2204      O2217   1.250       .  A
C2204      C2473   1.472       .  S
O2205      C2215   1.267       .  A
O2205     Al2207   1.890       .  S
O2206      C2219   1.259       .  A
O2206     Al2216   1.927       .  S
Al2207     O2220   1.881       .  S
Al2207     O2217   1.885       .  S
Al2207     O2212   1.778       .  S
O2208      C2215   1.277       .  A
O2208     Al2216   1.959       .  S
O2209      C2218   1.268       .  A
O2209     Al2216   1.955       .  S
O2210     Al2216   1.911       .  S
O2211      C2218   1.253       .  A
O2212     Al2216   1.783       .  S
O2213      C2214   1.268       .  A
C2214      C2497   1.475   1_556  S
C2215      C2449   1.480       .  S
C2218      C2461   1.503       .  S
C2219      O2220   1.253       .  A
C2219      C2437   1.465       .  S
O2221      C2236   1.264       .  A
O2221     Al2229   1.881       .  S
C2222      O2232   1.261       .  A
C2222      O2223   1.262       .  A
C2222      C2428   1.491       .  S
O2223     Al2225   1.907       .  S
O2224      C2226   1.260       .  A
O2224     Al2225   1.899       .  S
Al2225     O2233   1.858       .  S
Al2225     O2235   1.904       .  S
Al2225     O2234   1.783       .  S
C2226      O2239   1.255       .  A
C2226      C2752   1.471       .  S
O2227      C2237   1.261       .  A
O2227     Al2229   1.877       .  S
O2228      C2241   1.260       .  A
O2228     Al2238   1.934       .  S
Al2229     O2242   1.889       .  S
Al2229     O2239   1.902       .  S
Al2229     O2234   1.780       .  S
O2230      C2237   1.275       .  A
O2230     Al2238   1.961       .  S
O2231      C2240   1.269       .  A
O2231     Al2238   1.960       .  S
O2232     Al2238   1.912       .  S
O2233      C2240   1.252       .  A
O2234     Al2238   1.788       .  S
O2235      C2236   1.262       .  A
C2236      C2413   1.475       .  S
C2237      C2536   1.489       .  S
C2240      C2524   1.483       .  S
C2241      O2242   1.259       .  A
C2241      C2404   1.478       .  S
O2243      C2258   1.270       .  A
O2243     Al2251   1.892       .  S
C2244      O2254   1.270       .  A
C2244      O2245   1.264       .  A
C2244      C2764   1.483       .  S
O2245     Al2247   1.887       .  S
O2246      C2248   1.257       .  A
O2246     Al2247   1.915       .  S
Al2247     O2255   1.881       .  S
Al2247     O2257   1.907       .  S
Al2247     O2256   1.777       .  S
C2248      O2261   1.242       .  A
C2248      C2389   1.462       .  S
O2249      C2259   1.265       .  A
O2249     Al2251   1.887       .  S
O2250      C2263   1.269       .  A
O2250     Al2260   1.971       .  S
Al2251     O2264   1.881       .  S
Al2251     O2261   1.843       .  S
Al2251     O2256   1.777       .  S
O2252      C2259   1.275       .  A
O2252     Al2260   1.950       .  S
O2253      C2262   1.258       .  A
O2253     Al2260   1.919       .  S
O2254     Al2260   1.929       .  S
O2255      C2262   1.254       .  A
O2256     Al2260   1.782       .  S
O2257      C2258   1.267       .  A
C2258      C2704   1.480       .  S
C2259      C2380   1.483       .  S
C2262      C2632   1.490       .  S
C2263      O2264   1.248       .  A
C2263      C2401   1.495       .  S
O2265      C2280   1.258       .  A
O2265     Al2273   1.868       .  S
C2266      O2276   1.269       .  A
C2266      O2267   1.267       .  A
C2266      C2464   1.502       .  S
O2267     Al2269   1.918   1_556  S
O2268      C2270   1.258       .  A
O2268     Al2269   1.902       .  S
Al2269     O2277   1.864       .  S
Al2269     O2279   1.920       .  S
Al2269     O2278   1.775       .  S
C2270      O2283   1.254       .  A
C2270      C2512   1.467       .  S
O2271      C2281   1.259   1_554  A
O2271     Al2273   1.877       .  S
O2272      C2285   1.265       .  A
O2272     Al2282   1.937   1_554  S
Al2273     O2286   1.908       .  S
Al2273     O2283   1.901       .  S
Al2273     O2278   1.779       .  S
O2274      C2281   1.273       .  A
O2274     Al2282   1.951       .  S
O2275      C2284   1.266   1_556  A
O2275     Al2282   1.949       .  S
O2276     Al2282   1.933       .  S
O2277      C2284   1.253       .  A
O2278     Al2282   1.783   1_554  S
O2279      C2280   1.268       .  A
C2280      C2416   1.475       .  S
C2281      C2653   1.469       .  S
C2284      C2740   1.487       .  S
C2285      O2286   1.260       .  A
C2285      C2368   1.484       .  S
O2287      C2302   1.262       .  A
O2287     Al2295   1.878       .  S
C2288      O2298   1.269       .  A
C2288      O2289   1.262       .  A
C2288      C2485   1.499       .  S
O2289     Al2291   1.895       .  S
O2290      C2292   1.261       .  A
O2290     Al2291   1.908       .  S
Al2291     O2299   1.868       .  S
Al2291     O2301   1.905       .  S
Al2291     O2300   1.775       .  S
C2292      O2305   1.254       .  A
C2292      C2476   1.470       .  S
O2293      C2303   1.260       .  A
O2293     Al2295   1.880       .  S
O2294      C2307   1.265       .  A
O2294     Al2304   1.944       .  S
Al2295     O2308   1.891       .  S
Al2295     O2305   1.891       .  S
Al2295     O2300   1.780       .  S
O2296      C2303   1.272       .  A
O2296     Al2304   1.947       .  S
O2297      C2306   1.265       .  A
O2297     Al2304   1.942       .  S
O2298     Al2304   1.940       .  S
O2299      C2306   1.256       .  A
O2300     Al2304   1.781       .  S
O2301      C2302   1.263       .  A
C2302      C2572   1.464   1_554  S
C2303      C2377   1.468       .  S
C2306      C2353   1.482       .  S
C2307      O2308   1.255       .  A
C2307      C2365   1.479       .  S
O2309      C2324   1.269       .  A
O2309     Al2317   1.901       .  S
C2310      O2320   1.266       .  A
C2310      O2311   1.258       .  A
C2310      C2692   1.489       .  S
O2311     Al2313   1.881       .  S
O2312      C2314   1.258       .  A
O2312     Al2313   1.899       .  S
Al2313     O2321   1.858       .  S
Al2313     O2323   1.892       .  S
Al2313     O2322   1.777       .  S
C2314      O2327   1.253       .  A
C2314      C2392   1.467       .  S
O2315      C2325   1.264       .  A
O2315     Al2317   1.893       .  S
O2316      C2329   1.261       .  A
O2316     Al2326   1.933       .  S
Al2317     O2330   1.887       .  S
Al2317     O2327   1.889       .  S
Al2317     O2322   1.786       .  S
O2318      C2325   1.276       .  A
O2318     Al2326   1.959       .  S
O2319      C2328   1.269       .  A
O2319     Al2326   1.954       .  S
O2320     Al2326   1.938       .  S
O2321      C2328   1.253       .  A
O2322     Al2326   1.784       .  S
O2323      C2324   1.261       .  A
C2324      C2776   1.476       .  S
C2325      C2452   1.480       .  S
C2328      C2425   1.491       .  S
C2329      O2330   1.254       .  A
C2329      C2584   1.476       .  S
O2331      C2346   1.260       .  A
O2331     Al2339   1.871       .  S
C2332      O2342   1.266       .  A
C2332      O2333   1.262       .  A
C2332      C2356   1.488       .  S
O2333     Al2335   1.893   1_554  S
O2334      C2336   1.259       .  A
O2334     Al2335   1.902       .  S
Al2335     O2343   1.869       .  S
Al2335     O2345   1.909       .  S
Al2335     O2344   1.779       .  S
C2336      O2349   1.252       .  A
C2336      C2548   1.470       .  S
O2337      C2347   1.263   1_556  A
O2337     Al2339   1.880       .  S
O2338      C2351   1.265       .  A
O2338     Al2348   1.936   1_556  S
Al2339     O2352   1.898       .  S
Al2339     O2349   1.890       .  S
Al2339     O2344   1.777       .  S
O2340      C2347   1.275       .  A
O2340     Al2348   1.953       .  S
O2341      C2350   1.268   1_554  A
O2341     Al2348   1.954       .  S
O2342     Al2348   1.927       .  S
O2343      C2350   1.253       .  A
O2344     Al2348   1.778   1_556  S
O2345      C2346   1.263       .  A
C2346      C2620   1.449       .  S
C2347      C2725   1.479       .  S
C2350      C2680   1.494       .  S
C2351      O2352   1.256       .  A
C2351      C2440   1.486       .  S
C2353      C2354   1.405       .  A
C2353      C2358   1.412       .  A
C2354      H2359   1.085       .  S
C2355      C2356   1.416       .  A
C2355      C2362   1.443       .  S
C2356      C2357   1.404       .  A
C2357      H2360   1.085       .  S
C2358      C2361   1.445       .  S
C2361      N2363   1.157       .  T
C2362      N2364   1.157       .  T
C2365      C2366   1.410       .  A
C2365      C2370   1.405       .  A
C2366      C2367   1.407       .  A
C2366      H2371   1.085       .  S
C2367      C2368   1.408       .  A
C2367      C2374   1.443   1_554  S
C2368      C2369   1.408       .  A
C2369      C2370   1.403       .  A
C2369      H2372   1.083       .  S
C2370      C2373   1.443       .  S
C2373      N2375   1.157       .  T
C2374      N2376   1.157       .  T
C2377      C2378   1.399       .  A
C2377      C2382   1.407       .  A
C2378      C2379   1.402       .  A
C2378      H2383   1.084       .  S
C2379      C2380   1.417       .  A
C2379      C2386   1.444       .  S
C2380      C2381   1.406       .  A
C2381      C2382   1.398       .  A
C2381      H2384   1.085       .  S
C2382      C2385   1.443       .  S
C2385      N2387   1.157       .  T
C2386      N2388   1.157       .  T
C2389      C2390   1.409       .  A
C2390      H2395   1.084       .  S
C2391      C2392   1.401       .  A
C2392      C2393   1.413       .  A
C2393      C2394   1.399       .  A
C2393      H2396   1.084       .  S
C2394      C2397   1.444       .  S
C2397      N2399   1.157       .  T
C2398      N2400   1.157       .  T
C2401      C2402   1.407       .  A
C2401      C2406   1.427       .  A
C2402      C2403   1.413       .  A
C2402      H2407   1.084       .  S
C2403      C2404   1.412       .  A
C2403      C2410   1.438       .  S
C2404      C2405   1.392       .  A
C2405      C2406   1.388       .  A
C2405      H2408   1.087       .  S
C2406      C2409   1.446       .  S
C2409      N2411   1.158       .  T
C2410      N2412   1.157       .  T
C2413      C2414   1.401       .  A
C2413      C2418   1.416       .  A
C2414      C2415   1.390       .  A
C2414      H2419   1.085       .  S
C2415      C2416   1.417       .  A
C2415      C2422   1.445       .  S
C2416      C2417   1.403       .  A
C2417      C2418   1.395       .  A
C2417      H2420   1.085       .  S
C2418      C2421   1.445       .  S
C2421      N2423   1.157       .  T
C2422      N2424   1.157       .  T
C2425      C2426   1.408       .  A
C2425      C2430   1.413   1_655  A
C2426      H2431   1.085       .  S
C2427      C2428   1.412       .  A
C2427      C2434   1.445       .  S
C2428      C2429   1.409       .  A
C2429      H2432   1.084       .  S
C2430      C2433   1.443   1_455  S
C2433      N2435   1.157       .  T
C2434      N2436   1.157       .  T
C2437      C2438   1.393       .  A
C2437      C2442   1.411       .  A
C2438      C2439   1.392       .  A
C2438      H2443   1.087       .  S
C2439      C2440   1.422       .  A
C2439      C2446   1.445       .  S
C2440      C2441   1.406       .  A
C2441      C2442   1.408       .  A
C2441      H2444   1.084       .  S
C2442      C2445   1.443       .  S
C2445      N2447   1.157       .  T
C2446      N2448   1.158       .  T
C2449      C2450   1.403       .  A
C2449      C2454   1.412       .  A
C2450      C2451   1.402       .  A
C2450      H2455   1.085       .  S
C2451      C2452   1.411       .  A
C2451      C2458   1.442       .  S
C2452      C2453   1.404       .  A
C2453      C2454   1.405       .  A
C2453      H2456   1.084       .  S
C2454      C2457   1.444       .  S
C2457      N2459   1.157       .  T
C2458      N2460   1.156       .  T
C2461      C2462   1.408       .  A
C2461      C2466   1.420       .  A
C2462      C2463   1.414       .  A
C2462      H2467   1.084       .  S
C2463      C2464   1.418       .  A
C2463      C2470   1.442       .  S
C2464      C2465   1.405       .  A
C2465      C2466   1.403       .  A
C2465      H2468   1.085       .  S
C2466      C2469   1.445       .  S
C2469      N2471   1.157       .  T
C2470      N2472   1.157       .  T
C2473      C2474   1.410   1_556  A
C2473      C2478   1.402       .  A
C2474      H2479   1.084       .  S
C2475      C2476   1.401   1_545  A
C2475      C2482   1.444       .  S
C2477      C2478   1.399       .  A
C2478      C2481   1.444       .  S
C2481      N2483   1.157       .  T
C2482      N2484   1.157       .  T
C2485      C2486   1.405       .  A
C2485      C2490   1.416       .  A
C2486      H2491   1.085       .  S
C2487      C2488   1.416       .  A
C2487      C2494   1.445       .  S
C2488      C2489   1.407       .  A
C2489      H2492   1.085       .  S
C2490      C2493   1.441       .  S
C2493      N2495   1.157       .  T
C2494      N2496   1.157       .  T
C2497      C2498   1.403       .  A
C2497      C2502   1.419       .  A
C2498      C2499   1.386       .  A
C2498      H2503   1.085       .  S
C2499      C2500   1.409       .  A
C2499      C2506   1.446       .  S
C2500      C2501   1.399       .  A
C2501      C2502   1.397       .  A
C2501      H2504   1.085       .  S
C2502      C2505   1.445       .  S
C2505      N2507   1.157       .  T
C2506      N2508   1.157       .  T
C2509      C2510   1.416       .  A
C2509      C2514   1.414       .  A
C2510      C2511   1.405       .  A
C2510      H2515   1.084       .  S
C2511      C2512   1.402       .  A
C2511      C2518   1.443       .  S
C2512      C2513   1.400       .  A
C2513      C2514   1.391       .  A
C2513      H2516   1.080       .  S
C2514      C2517   1.445       .  S
C2517      N2519   1.157       .  T
C2518      N2520   1.157       .  T
C2521      C2522   1.398       .  A
C2521      C2526   1.412       .  A
C2522      C2523   1.393       .  A
C2522      H2527   1.085       .  S
C2523      C2524   1.412       .  A
C2523      C2530   1.444       .  S
C2524      C2525   1.409       .  A
C2525      C2526   1.417       .  A
C2525      H2528   1.084       .  S
C2526      C2529   1.442       .  S
C2529      N2531   1.157       .  T
C2530      N2532   1.156       .  T
C2533      C2534   1.409       .  A
C2533      C2538   1.409       .  A
C2534      C2535   1.404       .  A
C2534      H2539   1.085       .  S
C2535      C2536   1.411       .  A
C2535      C2542   1.444       .  S
C2536      C2537   1.410       .  A
C2537      C2538   1.402       .  A
C2537      H2540   1.085       .  S
C2538      C2541   1.444       .  S
C2541      N2543   1.157       .  T
C2542      N2544   1.157       .  T
C2545      C2546   1.409       .  A
C2546      C2547   1.405       .  A
C2546      H2551   1.085       .  S
C2547      C2554   1.443       .  S
C2548      C2549   1.399       .  A
C2549      C2550   1.394   1_655  A
C2549      H2552   1.085       .  S
C2550      C2553   1.444       .  S
C2553      N2555   1.157       .  T
C2554      N2556   1.157       .  T
C2557      C2562   1.412   1_565  A
C2558      C2559   1.400       .  A
C2558      H2563   1.085       .  S
C2559      C2560   1.407       .  A
C2559      C2566   1.444       .  S
C2560      C2561   1.408       .  A
C2561      H2564   1.085       .  S
C2562      C2565   1.443       .  S
C2565      N2567   1.157   1_545  T
C2566      N2568   1.157       .  T
C2569      C2570   1.407       .  A
C2569      C2574   1.416       .  A
C2570      C2571   1.394       .  A
C2570      H2575   1.085       .  S
C2571      C2572   1.410       .  A
C2571      C2578   1.445       .  S
C2572      C2573   1.401       .  A
C2573      C2574   1.388       .  A
C2573      H2576   1.085       .  S
C2574      C2577   1.446       .  S
C2577      N2579   1.157       .  T
C2578      N2580   1.157       .  T
C2581      C2582   1.408       .  A
C2581      C2586   1.404       .  A
C2582      C2583   1.405       .  A
C2582      H2587   1.085       .  S
C2583      C2584   1.406       .  A
C2583      C2590   1.443       .  S
C2584      C2585   1.406       .  A
C2585      C2586   1.400       .  A
C2585      H2588   1.083       .  S
C2586      C2589   1.443       .  S
C2589      N2591   1.157       .  T
C2590      N2592   1.157       .  T
C2593      C2594   1.405       .  A
C2593      C2598   1.421       .  A
C2594      C2595   1.400       .  A
C2594      H2599   1.085       .  S
C2595      C2596   1.412       .  A
C2595      C2602   1.445       .  S
C2596      C2597   1.401       .  A
C2597      C2598   1.406       .  A
C2597      H2600   1.085       .  S
C2598      C2601   1.444       .  S
C2601      N2603   1.158       .  T
C2602      N2604   1.157       .  T
C2605      C2606   1.405       .  A
C2606      H2611   1.085       .  S
C2607      C2608   1.410       .  A
C2607      C2614   1.445       .  S
C2608      C2609   1.405       .  A
C2609      C2610   1.405       .  A
C2609      H2612   1.084       .  S
C2610      C2613   1.443       .  S
C2613      N2615   1.157       .  T
C2614      N2616   1.157       .  T
C2617      C2618   1.399       .  A
C2617      C2622   1.402       .  A
C2618      C2619   1.389       .  A
C2618      H2623   1.086       .  S
C2619      C2620   1.405       .  A
C2619      C2626   1.445       .  S
C2620      C2621   1.402       .  A
C2621      C2622   1.392       .  A
C2621      H2624   1.081       .  S
C2622      C2625   1.445       .  S
C2625      N2627   1.157       .  T
C2626      N2628   1.157       .  T
C2629      C2630   1.405       .  A
C2629      C2634   1.413       .  A
C2630      C2631   1.408       .  A
C2630      H2635   1.085       .  S
C2631      C2632   1.416       .  A
C2631      C2638   1.443       .  S
C2632      C2633   1.405       .  A
C2633      C2634   1.399       .  A
C2633      H2636   1.085       .  S
C2634      C2637   1.445       .  S
C2637      N2639   1.157       .  T
C2638      N2640   1.157       .  T
C2641      C2642   1.407       .  A
C2641      C2646   1.409       .  A
C2642      C2643   1.397       .  A
C2642      H2647   1.082       .  S
C2643      C2644   1.404       .  A
C2643      C2650   1.445       .  S
C2644      C2645   1.408       .  A
C2645      C2646   1.408       .  A
C2645      H2648   1.085       .  S
C2646      C2649   1.442       .  S
C2649      N2651   1.157       .  T
C2650      N2652   1.157       .  T
C2653      C2654   1.404       .  A
C2653      C2658   1.409       .  A
C2654      C2655   1.401       .  A
C2654      H2659   1.085       .  S
C2655      C2656   1.411       .  A
C2655      C2662   1.445       .  S
C2656      C2657   1.400       .  A
C2657      C2658   1.395       .  A
C2657      H2660   1.085       .  S
C2658      C2661   1.442       .  S
C2661      N2663   1.156       .  T
C2662      N2664   1.157       .  T
C2665      C2666   1.410       .  A
C2665      C2670   1.414       .  A
C2666      C2667   1.405       .  A
C2666      H2671   1.084       .  S
C2667      C2668   1.407       .  A
C2667      C2674   1.442       .  S
C2668      C2669   1.401       .  A
C2669      C2670   1.391       .  A
C2669      H2672   1.083       .  S
C2670      C2673   1.446       .  S
C2673      N2675   1.158       .  T
C2674      N2676   1.157       .  T
C2677      C2678   1.409       .  A
C2677      C2682   1.412       .  A
C2678      C2679   1.411       .  A
C2678      H2683   1.085       .  S
C2679      C2680   1.414       .  A
C2679      C2686   1.443       .  S
C2680      C2681   1.408       .  A
C2681      C2682   1.403       .  A
C2681      H2684   1.085       .  S
C2682      C2685   1.444       .  S
C2685      N2687   1.157       .  T
C2686      N2688   1.157       .  T
C2689      C2694   1.414   1_565  A
C2690      C2691   1.412       .  A
C2690      H2695   1.084       .  S
C2691      C2692   1.413       .  A
C2691      C2698   1.441       .  S
C2692      C2693   1.404       .  A
C2693      H2696   1.085       .  S
C2694      C2697   1.446   1_545  S
C2697      N2699   1.157       .  T
C2698      N2700   1.157       .  T
C2701      C2702   1.400       .  A
C2701      C2706   1.415       .  A
C2702      C2703   1.396       .  A
C2702      H2707   1.085       .  S
C2703      C2704   1.420       .  A
C2703      C2710   1.445       .  S
C2704      C2705   1.402       .  A
C2705      C2706   1.391       .  A
C2705      H2708   1.083       .  S
C2706      C2709   1.446       .  S
C2709      N2711   1.157       .  T
C2710      N2712   1.157       .  T
C2713      C2714   1.398       .  A
C2713      C2718   1.416       .  A
C2714      C2715   1.402       .  A
C2714      H2719   1.085       .  S
C2715      C2716   1.415       .  A
C2715      C2722   1.441       .  S
C2716      C2717   1.394       .  A
C2717      C2718   1.399       .  A
C2717      H2720   1.085       .  S
C2718      C2721   1.438       .  S
C2721      N2723   1.156       .  T
C2722      N2724   1.156       .  T
C2725      C2726   1.404       .  A
C2725      C2730   1.414       .  A
C2726      C2727   1.399       .  A
C2726      H2731   1.085       .  S
C2727      C2728   1.409       .  A
C2727      C2734   1.443       .  S
C2728      C2729   1.402       .  A
C2729      C2730   1.401       .  A
C2729      H2732   1.085       .  S
C2730      C2733   1.445       .  S
C2733      N2735   1.157       .  T
C2734      N2736   1.157       .  T
C2737      C2738   1.409       .  A
C2737      C2742   1.412       .  A
C2738      C2739   1.411       .  A
C2738      H2743   1.085       .  S
C2739      C2746   1.443   1_655  S
C2740      C2741   1.405       .  A
C2741      H2744   1.085       .  S
C2742      C2745   1.445       .  S
C2745      N2747   1.157       .  T
C2746      N2748   1.157   1_554  T
C2749      C2750   1.413       .  A
C2749      C2754   1.415   1_655  A
C2750      H2755   1.084       .  S
C2751      C2752   1.406       .  A
C2751      C2758   1.443       .  S
C2752      C2753   1.401       .  A
C2753      H2756   1.083       .  S
C2754      C2757   1.445       .  S
C2757      N2759   1.158       .  T
C2758      N2760   1.157       .  T
C2761      C2762   1.405       .  A
C2761      C2766   1.415       .  A
C2762      C2763   1.400       .  A
C2762      H2767   1.085       .  S
C2763      C2770   1.446       .  S
C2764      C2765   1.407       .  A
C2765      H2768   1.085       .  S
C2766      C2769   1.443       .  S
C2770      N2772   1.157       .  T
C2773      C2774   1.393       .  A
C2773      C2778   1.411       .  A
C2774      C2775   1.394       .  A
C2774      H2779   1.086       .  S
C2775      C2776   1.424       .  A
C2775      C2782   1.445       .  S
C2776      C2777   1.401       .  A
C2777      C2778   1.390       .  A
C2777      H2780   1.083       .  S
C2778      C2781   1.445       .  S
C2781      N2783   1.157       .  T
C2782      N2784   1.158       .  T
