geometry optimzed in LAMMPS
_audit_creation_date              2020-12-01 
_audit_creation_method            'lammps2cif' 
_symmetry_space_group_name_H-M    'P1' 
_symmetry_Int_Tables_number       1 
_symmetry_cell_setting            triclinic 
loop_ 
_symmetry_equiv_pos_as_xyz 
  x,y,z 
_cell_length_a                    40.14360719 
_cell_length_b                    40.37961245119458 
_cell_length_c                    41.14761563182529 
_cell_angle_alpha                 90.23687034882596 
_cell_angle_beta                  89.61390672176637 
_cell_angle_gamma                 120.61264977360715 
loop_ 
_atom_site_label 
_atom_site_type_symbol 
_atom_site_fract_x 
_atom_site_fract_y 
_atom_site_fract_z 
_atom_site_charge 
O1          O  0.67751652  0.20551357  0.18590723    -0.81000
C2          C  0.53646989  0.12982816  0.25464692     0.98400
O3          O  0.55502602  0.16552514  0.24878005    -0.70100
O4          O  0.62502513  0.18949987  0.26822233    -0.73700
Al5        Al  0.60488671  0.19654878  0.22930826     1.49000
C6          C  0.65387498  0.18548477  0.27192547     0.93600
O7          O  0.62557360  0.10685649  0.22676438    -0.79900
O8          O  0.58331541  0.13235242  0.15019742    -0.73500
Al9        Al  0.64871097  0.15615550  0.20634106     1.90100
O10         O  0.57351931  0.08011322  0.19694023    -0.72500
O11         O  0.53686973  0.15007185  0.18445347    -0.72400
O12         O  0.53820074  0.10607485  0.23545089    -0.78000
O13         O  0.58480776  0.20838044  0.19251367    -0.76200
O14         O  0.60535767  0.15788452  0.20952609    -1.12400
O15         O  0.65405137  0.23520648  0.21426170    -0.71600
C16         C  0.67819601  0.23596621  0.19415090     0.99200
C17         C  0.59583111  0.07711865  0.21652594     0.95600
Al18       Al  0.56145730  0.12008599  0.19287222     1.55600
O19         O  0.66803412  0.17708408  0.24808167    -0.76200
C20         C  0.55120087  0.18601424  0.18220104     0.99700
C21         C  0.61517920  0.13485867  0.14219288     0.94600
O22         O  0.63785619  0.13509046  0.16354718    -0.81500
O23         O  0.83665564  0.35004603  0.48456579    -0.81000
C24         C  0.74096638  0.25029123  0.38563323     0.98400
O25         O  0.74645635  0.23927120  0.41287576    -0.70100
O26         O  0.81930734  0.26752739  0.42745398    -0.73700
Al27       Al  0.77881135  0.26794897  0.44961549     1.49000
C28         C  0.85457825  0.29246735  0.42485445     0.93600
O29         O  0.84783718  0.36549843  0.39420608    -0.79900
O30         O  0.75754944  0.35379286  0.44332721    -0.73500
Al31       Al  0.83915445  0.35509195  0.43936877     1.90100
O32         O  0.79201522  0.36030271  0.38409625    -0.72500
O33         O  0.71193597  0.28005694  0.43456868    -0.72400
O34         O  0.75288095  0.28522245  0.38006158    -0.78000
O35         O  0.73500457  0.26125824  0.47370333    -0.76200
O36         O  0.79167433  0.31415468  0.43398202    -1.12400
O37         O  0.80791861  0.28745688  0.48940462    -0.71600
C38         C  0.82564135  0.32077642  0.50196810     0.99200
C39         C  0.82632498  0.37100374  0.37580011     0.95600
Al40       Al  0.75670387  0.31959878  0.41244288     1.55600
O41         O  0.86682928  0.32691441  0.43378278    -0.76200
C42         C  0.70681120  0.26081462  0.46006939     0.99700
C43         C  0.78659240  0.38527529  0.45159296     0.94600
O44         O  0.82073599  0.39168341  0.44625673    -0.81500
O45         O  0.62473198  0.50390790  0.48789038    -0.81000
C46         C  0.72898440  0.52516554  0.38680535     0.98400
O47         O  0.73935076  0.54065773  0.41464969    -0.70100
O48         O  0.70493447  0.57851475  0.43208048    -0.73700
Al49       Al  0.70889138  0.53898293  0.45247429     1.49000
C50         C  0.67719789  0.58458958  0.43105194     0.93600
O51         O  0.60991839  0.50380225  0.39823482    -0.79900
O52         O  0.62802204  0.42783072  0.44306235    -0.73500
Al53       Al  0.61990259  0.50368277  0.44311688     1.90100
O54         O  0.62005974  0.45702750  0.38557972    -0.72500
O55         O  0.70281212  0.46301779  0.43414324    -0.72400
O56         O  0.69479398  0.49875035  0.38153199    -0.78000
O57         O  0.71995712  0.50383084  0.47446341    -0.76200
O58         O  0.66354482  0.50262123  0.43646611    -1.12400
O59         O  0.68705757  0.54363367  0.49343011    -0.71600
C60         C  0.65334984  0.52404073  0.50569467     0.99200
C61         C  0.60788333  0.47929133  0.37827517     0.95600
Al62       Al  0.66146356  0.46477725  0.41314515     1.55600
O63         O  0.64376822  0.55928737  0.44064776    -0.76200
C64         C  0.72148694  0.47705679  0.45997389     0.99700
C65         C  0.59509792  0.42175076  0.45133616     0.94600
O66         O  0.58635223  0.44763239  0.44723414    -0.81500
O67         O  0.46166355  0.28424330  0.18647791    -0.81000
C68         C  0.54137838  0.42414983  0.25675954     0.98400
O69         O  0.55265316  0.40050395  0.25137719    -0.70100
O70         O  0.50379432  0.33038791  0.26857395    -0.73700
Al71       Al  0.53129784  0.35258894  0.22955044     1.49000
C72         C  0.46948998  0.30327799  0.27251437     0.93600
O73         O  0.42321561  0.34138985  0.23204537    -0.79900
O74         O  0.49131859  0.38153762  0.15400984    -0.73500
Al75       Al  0.44546256  0.31544000  0.20911643     1.90100
O76         O  0.45191525  0.39356892  0.20261096    -0.72500
O77         O  0.55715365  0.42359105  0.18736462    -0.72400
O78         O  0.51556124  0.42456685  0.23941527    -0.78000
O79         O  0.56476821  0.37438196  0.19289050    -0.76200
O80         O  0.49321647  0.35627576  0.21203430    -1.12400
O81         O  0.51707963  0.30433751  0.21113739    -0.71600
C82         C  0.49097623  0.28138667  0.19214490     0.99200
C83         C  0.42607865  0.37250249  0.22276974     0.95600
Al84       Al  0.50292112  0.40183228  0.19686810     1.55600
O85         O  0.44539839  0.29295802  0.24975767    -0.76200
C86         C  0.57808020  0.40881974  0.18455619     0.99700
C87         C  0.46015870  0.35142483  0.14578716     0.94600
O88         O  0.43622500  0.32930161  0.16705172    -0.81500
O89         O  0.45993155  0.13227281  0.49103332    -0.81000
C90         C  0.45228429  0.21988317  0.38794112     0.98400
O91         O  0.43679584  0.21669371  0.41575672    -0.70100
O92         O  0.39234340  0.14589668  0.43707636    -0.73700
Al93       Al  0.43563767  0.18884686  0.45494028     1.49000
C94         C  0.38289531  0.11120135  0.43452929     0.93600
O95         O  0.46511480  0.11968296  0.40070776    -0.79900
O96         O  0.54353802  0.21262432  0.44743593    -0.73500
Al97       Al  0.46324492  0.12943296  0.44573414     1.90100
O98         O  0.51669767  0.17469479  0.38984699    -0.72500
O99         O  0.51390296  0.25540971  0.43456112    -0.72400
O100        O  0.47682917  0.20965031  0.38313593    -0.78000
O101        O  0.47400148  0.23498359  0.47571027    -0.76200
O102        O  0.46897236  0.17582213  0.43912912    -1.12400
O103        O  0.42925674  0.16398697  0.49632694    -0.71600
C104        C  0.44341987  0.14515258  0.50867025     0.99200
C105        C  0.49265885  0.14057387  0.38199421     0.95600
Al106      Al  0.50920860  0.20998028  0.41588119     1.55600
O107        O  0.40715055  0.10069488  0.44027078    -0.76200
C108        C  0.50138213  0.26208900  0.46032518     0.99700
C109        C  0.54681479  0.18479046  0.45691464     0.94600
O110        O  0.51931446  0.15010874  0.45270624    -0.81500
O111        O  0.77028167  0.50606420  0.18361542    -0.81000
C112        C  0.83805912  0.43478545  0.25307760     0.98400
O113        O  0.80229959  0.42182633  0.24959669    -0.70100
O114        O  0.78723854  0.47432943  0.26870607    -0.73700
Al115      Al  0.77460667  0.44367064  0.23082599     1.49000
C116        C  0.79183768  0.50755186  0.27056118     0.93600
O117        O  0.86951163  0.55065216  0.22405182    -0.79900
O118        O  0.83807863  0.47943586  0.14880119    -0.73500
Al119      Al  0.81981409  0.52609683  0.20394794     1.90100
O120        O  0.89284823  0.52103479  0.19550099    -0.72500
O121        O  0.81364845  0.41509208  0.18381500    -0.72400
O122        O  0.86260496  0.45918009  0.23342028    -0.78000
O123        O  0.75760553  0.40897443  0.19542911    -0.76200
O124        O  0.81435588  0.47977810  0.20875101    -1.12400
O125        O  0.73815709  0.45737344  0.21687483    -0.71600
C126        C  0.73867896  0.47881536  0.19446497     0.99200
C127        C  0.89786098  0.54754555  0.21485514     0.95600
Al128      Al  0.84908724  0.46960533  0.19151632     1.55600
O129        O  0.79947580  0.52807518  0.24549635    -0.76200
C130        C  0.77705922  0.39517162  0.18382966     0.99700
C131        C  0.83875613  0.50990217  0.14027896     0.94600
O132        O  0.84089869  0.53394149  0.16115961    -0.81500
O133        O  0.51158204  0.37251349  0.96716713    -0.81000
C134        C  0.43772218  0.23145765  0.89798213     0.98400
O135        O  0.47373723  0.25258637  0.90241511    -0.70100
O136        O  0.49662915  0.32252743  0.88383661    -0.73700
Al137      Al  0.50396239  0.30179885  0.92234436     1.49000
C138        C  0.49323209  0.35173065  0.88116709     0.93600
O139        O  0.41210774  0.31965660  0.92595296    -0.79900
O140        O  0.43809035  0.27711648  0.00205915    -0.73500
Al141      Al  0.46179846  0.34328836  0.94663195     1.90100
O142        O  0.38561583  0.26681797  0.95466276    -0.72500
O143        O  0.45860207  0.23315865  0.96765317    -0.72400
O144        O  0.41349667  0.23273929  0.91702975    -0.78000
O145        O  0.51656460  0.28163479  0.95843958    -0.76200
O146        O  0.46449105  0.30070896  0.94267003    -1.12400
O147        O  0.54216854  0.35074412  0.93779699    -0.71600
C148        C  0.54263545  0.37439819  0.95807717     0.99200
C149        C  0.38231309  0.28912257  0.93528536     0.95600
Al150      Al  0.42698153  0.25619935  0.95921490     1.55600
O151        O  0.48347655  0.36429447  0.90525012    -0.76200
C152        C  0.49492426  0.24815336  0.96910530     0.99700
C153        C  0.43970866  0.30818375  0.01043547     0.94600
O154        O  0.44015309  0.33119103  0.98939255    -0.81500
O155        O  0.65704602  0.52414102  0.66210400    -0.81000
C156        C  0.55940300  0.43643803  0.76560211     0.98400
O157        O  0.54715502  0.43996947  0.73815924    -0.70100
O158        O  0.57607788  0.51137875  0.71902604    -0.73700
Al159      Al  0.57475401  0.46877768  0.69926156     1.49000
C160        C  0.60194294  0.54630714  0.72064729     0.93600
O161        O  0.67434364  0.53912035  0.75163783    -0.79900
O162        O  0.65989041  0.44641208  0.70552107    -0.73500
Al163      Al  0.66311752  0.52850836  0.70688468     1.90100
O164        O  0.66924061  0.48404743  0.76327559    -0.72500
O165        O  0.58599155  0.40221774  0.71757443    -0.72400
O166        O  0.59440847  0.44695161  0.76986741    -0.78000
O167        O  0.56565636  0.42267855  0.67768670    -0.76200
O168        O  0.62151056  0.48181171  0.71410206    -1.12400
O169        O  0.59385829  0.49458934  0.65782500    -0.71600
C170        C  0.62736453  0.51225804  0.64499057     0.99200
C171        C  0.67910068  0.51804194  0.77101537     0.95600
Al172      Al  0.62711061  0.44792014  0.73696896     1.55600
O173        O  0.63617752  0.55724869  0.71137769    -0.76200
C174        C  0.56566993  0.39545637  0.69252009     0.99700
C175        C  0.69146581  0.47458043  0.69587749     0.94600
O176        O  0.69888460  0.50894858  0.70049514    -0.81500
O177        O  0.44167505  0.15032429  0.66615056    -0.81000
C178        C  0.52963885  0.14120508  0.76736443     0.98400
O179        O  0.52610889  0.12584115  0.73963086    -0.70100
O180        O  0.45393203  0.08211023  0.72224617    -0.73700
Al181      Al  0.49634284  0.12376343  0.70168857     1.49000
C182        C  0.41895198  0.07267234  0.72430673     0.93600
O183        O  0.42725069  0.15288878  0.75592943    -0.79900
O184        O  0.52089381  0.23190036  0.70939701    -0.73500
Al185      Al  0.43751583  0.15204645  0.71100193     1.90100
O186        O  0.48308062  0.20351118  0.76731172    -0.72500
O187        O  0.56408629  0.20190608  0.71994567    -0.72400
O188        O  0.51885987  0.16505922  0.77254869    -0.78000
O189        O  0.54202769  0.16143763  0.67934081    -0.76200
O190        O  0.48404885  0.15748363  0.71739859    -1.12400
O191        O  0.46950512  0.11596642  0.66073786    -0.71600
C192        C  0.45306108  0.13268636  0.64839380     0.99200
C193        C  0.44846186  0.17975903  0.77487843     0.95600
Al194      Al  0.51869972  0.19725755  0.74027805     1.55600
O195        O  0.40816442  0.09582274  0.71545292    -0.76200
C196        C  0.56993532  0.18887216  0.69401025     0.99700
C197        C  0.49286662  0.23545108  0.70067991     0.94600
O198        O  0.45806771  0.20797769  0.70502990    -0.81500
O199        O  0.59635894  0.16107693  0.96819911    -0.81000
C200        C  0.73543319  0.23609536  0.89455134     0.98400
O201        O  0.71288563  0.24852604  0.90073603    -0.70100
O202        O  0.64320111  0.19817888  0.88375606    -0.73700
Al203      Al  0.66429588  0.22690757  0.92205332     1.49000
C204        C  0.61482303  0.16442804  0.88135891     0.93600
O205        O  0.64944650  0.11889769  0.92279105    -0.79900
O206        O  0.69386274  0.18811063  0.99897184    -0.73500
Al207      Al  0.62578640  0.14282677  0.94550614     1.90100
O208        O  0.70391186  0.14744838  0.94966872    -0.72500
O209        O  0.73535817  0.25329709  0.96431838    -0.72400
O210        O  0.73563244  0.21046754  0.91218826    -0.78000
O211        O  0.68547913  0.26045903  0.95826477    -0.76200
O212        O  0.66761987  0.18953273  0.94095368    -1.12400
O213        O  0.61502009  0.21310460  0.93914292    -0.71600
C214        C  0.59265990  0.18906419  0.95986870     0.99200
C215        C  0.68061212  0.12100841  0.93097798     0.95600
Al216      Al  0.71344661  0.19886217  0.95540943     1.55600
O217        O  0.60278309  0.14232885  0.90551339    -0.76200
C218        C  0.72013757  0.27395840  0.96672252     0.99700
C219        C  0.66300461  0.15782870  0.00767595     0.94600
O220        O  0.64038429  0.13392819  0.98691548    -0.81500
O221        O  0.81715617  0.31557585  0.65978065    -0.81000
C222        C  0.83129405  0.41734733  0.76005454     0.98400
O223        O  0.84750882  0.42817931  0.73237407    -0.70100
O224        O  0.88840654  0.39752267  0.71300196    -0.73700
Al225      Al  0.84670342  0.39904298  0.69413093     1.49000
C226        C  0.89574929  0.37091736  0.71567278     0.93600
O227        O  0.81222527  0.30095564  0.75042483    -0.79900
O228        O  0.73564773  0.31575747  0.70224858    -0.73500
Al229      Al  0.81421962  0.31092747  0.70516491     1.90100
O230        O  0.76331362  0.30870713  0.76097765    -0.72500
O231        O  0.76845643  0.38989319  0.71184035    -0.72400
O232        O  0.80403515  0.38341943  0.76486450    -0.78000
O233        O  0.81060568  0.40886188  0.67233057    -0.76200
O234        O  0.81107019  0.35336451  0.71050246    -1.12400
O235        O  0.85185057  0.37812412  0.65337260    -0.71600
C236        C  0.83556245  0.34439146  0.64162051     0.99200
C237        C  0.78613051  0.29762400  0.76943668     0.95600
Al238      Al  0.77135646  0.34969043  0.73286902     1.55600
O239        O  0.87001928  0.33638580  0.70993283    -0.76200
C240        C  0.78273936  0.40899102  0.68630611     0.99700
C241        C  0.73092801  0.28328267  0.69497490     0.94600
O242        O  0.75810129  0.27620442  0.69940881    -0.81500
O243        O  0.81684352  0.46517604  0.96366161    -0.81000
C244        C  0.74357327  0.53041828  0.89260821     0.98400
O245        O  0.73216488  0.49512863  0.89600503    -0.70100
O246        O  0.78375355  0.47807674  0.87826742    -0.73700
Al247      Al  0.75300892  0.46763806  0.91619803     1.49000
C248        C  0.81725192  0.48287248  0.87640048     0.93600
O249        O  0.86056186  0.56301564  0.92058005    -0.79900
O250        O  0.78891511  0.53220749  0.99643133    -0.73500
Al251      Al  0.83638839  0.51391483  0.94204415     1.90100
O252        O  0.83084398  0.58618972  0.94927994    -0.72500
O253        O  0.72427471  0.50823045  0.96169395    -0.72400
O254        O  0.76835450  0.55552348  0.91158267    -0.78000
O255        O  0.71726613  0.45200578  0.95144085    -0.76200
O256        O  0.78945596  0.50789353  0.93720564    -1.12400
O257        O  0.76636126  0.43193973  0.93225826    -0.71600
C258        C  0.78877656  0.43333753  0.95423192     0.99200
C259        C  0.85726034  0.59119054  0.92958084     0.95600
Al260      Al  0.77914861  0.54277613  0.95364937     1.55600
O261        O  0.83848229  0.49229196  0.90115321    -0.76200
C262        C  0.70373109  0.47196080  0.96238097     0.99700
C263        C  0.81974242  0.53346439  0.00519845     0.94600
O264        O  0.84435399  0.53625459  0.98436612    -0.81500
O265        O  0.35564459  0.53657697  0.51682446    -0.81000
C266        C  0.21996553  0.47156787  0.59516998     0.98400
O267        O  0.24508769  0.50667571  0.59178858    -0.70100
O268        O  0.31402370  0.52118516  0.60509509    -0.73700
Al269      Al  0.29312678  0.53364896  0.56958061     1.49000
C270        C  0.34225300  0.51580495  0.60467359     0.93600
O271        O  0.30283070  0.43858558  0.55896979    -0.79900
O272        O  0.25841228  0.47066271  0.48789414    -0.73500
Al273      Al  0.32713376  0.48782322  0.53836085     1.90100
O274        O  0.24703742  0.41565157  0.53431770    -0.72500
O275        O  0.22079931  0.49482123  0.52678341    -0.72400
O276        O  0.21782395  0.44650057  0.57522725    -0.78000
O277        O  0.27226447  0.55042536  0.53679179    -0.76200
O278        O  0.28672934  0.49372618  0.54676999    -1.12400
O279        O  0.34264967  0.56948377  0.55204783    -0.71600
C280        C  0.36130958  0.56827118  0.52774979     0.99200
C281        C  0.27041391  0.41037494  0.55088739     0.95600
Al282      Al  0.23986665  0.45948928  0.53196726     1.55600
O283        O  0.35366005  0.50859444  0.57844010    -0.76200
C284        C  0.23770034  0.53115040  0.52730622     0.99700
C285        C  0.28783559  0.47014787  0.47713060     0.94600
O286        O  0.30981992  0.46602028  0.49637767    -0.81500
O287        O  0.12716621  0.47051140  0.82442048    -0.81000
C288        C  0.11561913  0.56221390  0.72667910     0.98400
O289        O  0.09882931  0.55525423  0.75410816    -0.70100
O290        O  0.05748328  0.48145535  0.76717453    -0.73700
Al291      Al  0.09701378  0.52314900  0.79002524     1.49000
C292        C  0.04965753  0.44717988  0.76482435     0.93600
O293        O  0.13258563  0.46039511  0.73390673    -0.79900
O294        O  0.20837188  0.55237550  0.78204097    -0.73500
Al295      Al  0.12994476  0.46846379  0.77910507     1.90100
O296        O  0.18021937  0.51836820  0.72286839    -0.72500
O297        O  0.17556172  0.59326783  0.77568826    -0.72400
O298        O  0.14077007  0.55322559  0.72067369    -0.78000
O299        O  0.13243002  0.56751792  0.81462464    -0.76200
O300        O  0.13319204  0.51414711  0.77394484    -1.12400
O301        O  0.08848852  0.49370941  0.82929657    -0.71600
C302        C  0.10656087  0.47876711  0.84177369     0.99200
C303        C  0.15888912  0.48351534  0.71508129     0.95600
Al304      Al  0.17289560  0.55105973  0.75225684     1.55600
O305        O  0.07364469  0.43758572  0.77415797    -0.76200
C306        C  0.16052399  0.59659778  0.80155762     0.99700
C307        C  0.21311138  0.52484825  0.78940690     0.94600
O308        O  0.18596515  0.49024776  0.78498720    -0.81500
O309        O  0.28775356  0.83892501  0.82546532    -0.81000
C310        C  0.37836293  0.84441674  0.71841787     0.98400
O311        O  0.39194156  0.86166118  0.74522581    -0.70100
O312        O  0.36676596  0.90677116  0.76684713    -0.73700
Al313      Al  0.36727533  0.86431608  0.78515578     1.49000
C314        C  0.34134848  0.91618029  0.76786103     0.93600
O315        O  0.26593533  0.83552294  0.73683796    -0.79900
O316        O  0.27967914  0.75630228  0.78123727    -0.73500
Al317      Al  0.27913037  0.83645186  0.78100026     1.90100
O318        O  0.26743727  0.78379999  0.72418965    -0.72500
O319        O  0.35244659  0.78491687  0.76606176    -0.72400
O320        O  0.34274495  0.82082874  0.71479963    -0.78000
O321        O  0.37609936  0.82677489  0.80549627    -0.76200
O322        O  0.31938705  0.83053636  0.77181880    -1.12400
O323        O  0.35118624  0.87236370  0.82745926    -0.71600
C324        C  0.31842218  0.85743781  0.84142906     0.99200
C325        C  0.25798495  0.80839717  0.71760104     0.95600
Al326      Al  0.31108345  0.78986963  0.74868488     1.55600
O327        O  0.30698862  0.89208366  0.77637832    -0.76200
C328        C  0.37467501  0.79910405  0.79002072     0.99700
C329        C  0.24905374  0.75361479  0.79218424     0.94600
O330        O  0.24234926  0.78099867  0.78815607    -0.81500
O331        O  0.13945200  0.62362064  0.52808853    -0.81000
C332        C  0.20130793  0.76630686  0.59291375     0.98400
O333        O  0.21820375  0.74740290  0.58942061    -0.70100
O334        O  0.16898172  0.67825750  0.61078927    -0.73700
Al335      Al  0.19948218  0.69714266  0.57237213     1.49000
C336        C  0.13621137  0.64808993  0.61320975     0.93600
O337        O  0.08814681  0.67456227  0.56350961    -0.79900
O338        O  0.16019699  0.71635156  0.48855731    -0.73500
Al339      Al  0.11635266  0.65175002  0.54564819     1.90100
O340        O  0.11604266  0.72669085  0.53388166    -0.72500
O341        O  0.22397370  0.76225451  0.52327310    -0.72400
O342        O  0.17666480  0.76365879  0.57245856    -0.78000
O343        O  0.23424815  0.71589335  0.53662999    -0.76200
O344        O  0.16144478  0.69557147  0.54952873    -1.12400
O345        O  0.18958266  0.64766975  0.56047408    -0.71600
C346        C  0.16866532  0.62354051  0.53929299     0.99200
C347        C  0.08960676  0.70472905  0.55329537     0.95600
Al348      Al  0.16861754  0.73868852  0.53091117     1.55600
O349        O  0.11545797  0.63353738  0.58840235    -0.76200
C350        C  0.24561725  0.74796363  0.52332699     0.99700
C351        C  0.13124683  0.68430183  0.48033424     0.94600
O352        O  0.10848477  0.66076261  0.50144106    -0.81500
O353        O  0.50412299  0.68473917  0.81809285    -0.81000
C354        C  0.41798548  0.57792771  0.71999420     0.98400
O355        O  0.42077178  0.56842211  0.74879225    -0.70100
O356        O  0.49182887  0.60062686  0.76936954    -0.73700
Al357      Al  0.44815726  0.59976540  0.78631452     1.49000
C358        C  0.52650788  0.62666706  0.76552954     0.93600
O359        O  0.51526595  0.69624312  0.72685906    -0.79900
O360        O  0.42099555  0.68038907  0.77209942    -0.73500
Al361      Al  0.50604746  0.68726875  0.77231865     1.90100
O362        O  0.45813215  0.68623973  0.71483090    -0.72500
O363        O  0.37927192  0.60551321  0.76412003    -0.72400
O364        O  0.42525788  0.61142809  0.71328867    -0.78000
O365        O  0.40138817  0.59125522  0.80667758    -0.76200
O366        O  0.45973027  0.64429769  0.76759426    -1.12400
O367        O  0.47315087  0.62261750  0.82655915    -0.71600
C368        C  0.49180718  0.65670089  0.83727717     0.99200
C369        C  0.49288580  0.69874429  0.70723528     0.95600
Al370      Al  0.42416622  0.64584847  0.74332692     1.55600
O371        O  0.53640228  0.66177365  0.76870998    -0.76200
C372        C  0.37349701  0.58905671  0.79113375     0.99700
C373        C  0.44883585  0.71294915  0.78022484     0.94600
O374        O  0.48383850  0.72096778  0.77677630    -0.81500
O375        O  0.43566054  0.83796675  0.51977051    -0.81000
C376        C  0.50297521  0.76303059  0.58465848     0.98400
O377        O  0.46728194  0.74902277  0.57913594    -0.70100
O378        O  0.44348600  0.79440989  0.59918518    -0.73700
Al379      Al  0.43869085  0.76932972  0.55935652     1.49000
C380        C  0.44934688  0.82767620  0.60450440     0.93600
O381        O  0.53365467  0.87954872  0.56261315    -0.79900
O382        O  0.50741388  0.81496387  0.48345091    -0.73500
Al383      Al  0.48452224  0.85570106  0.54092596     1.90100
O384        O  0.55918924  0.85433011  0.53155975    -0.72500
O385        O  0.48602535  0.74867659  0.51490186    -0.72400
O386        O  0.52866232  0.79005361  0.56732566    -0.78000
O387        O  0.42790585  0.73865649  0.52144004    -0.76200
O388        O  0.47986762  0.80932698  0.54207263    -1.12400
O389        O  0.40250305  0.78163571  0.54341621    -0.71600
C390        C  0.40389464  0.80759193  0.52567888     0.99200
C391        C  0.56302653  0.87901186  0.55229115     0.95600
Al392      Al  0.51731591  0.80277344  0.52541637     1.55600
O393        O  0.46230154  0.85264627  0.58238615    -0.76200
C394        C  0.44994063  0.72683701  0.51225393     0.99700
C395        C  0.50676486  0.84523156  0.47641735     0.94600
O396        O  0.50714975  0.86742875  0.49845408    -0.81500
O397        O  0.32461026  0.86054671  0.99915967    -0.81000
C398        C  0.21901271  0.77598486  0.09946519     0.98400
O399        O  0.20885918  0.77962911  0.07109948    -0.70100
O400        O  0.24108379  0.85108457  0.04970365    -0.73700
Al401      Al  0.23952493  0.80707662  0.03279492     1.49000
C402        C  0.26802791  0.88558488  0.05118786     0.93600
O403        O  0.33736379  0.87517901  0.08938517    -0.79900
O404        O  0.32128165  0.78079065  0.04553454    -0.73500
Al405      Al  0.32806050  0.86453578  0.04433255     1.90100
O406        O  0.32832348  0.81888540  0.10240884    -0.72500
O407        O  0.24631565  0.73886502  0.05468229    -0.72400
O408        O  0.25332176  0.78502686  0.10551910    -0.78000
O409        O  0.23012611  0.76010874  0.01265993    -0.76200
O410        O  0.28483477  0.81874520  0.05041841    -1.12400
O411        O  0.26188222  0.83178450  0.99191896    -0.71600
C412        C  0.29609968  0.84908159  0.98063185     0.99200
C413        C  0.34038161  0.85353281  0.10937929     0.95600
Al414      Al  0.28724317  0.78401646  0.07481690     1.55600
O415        O  0.30284620  0.89463973  0.04650448    -0.76200
C416        C  0.22839252  0.73256746  0.02830756     0.99700
C417        C  0.35390395  0.80824609  0.03680827     0.94600
O418        O  0.36227753  0.84300865  0.04052484    -0.81500
O419        O  0.48052182  0.79946359  0.30210255    -0.81000
C420        C  0.40767875  0.86438758  0.22993284     0.98400
O421        O  0.39542344  0.82902892  0.23428478    -0.70100
O422        O  0.44567763  0.80962386  0.21715130    -0.73700
Al423      Al  0.41586801  0.80143869  0.25535572     1.49000
C424        C  0.47908129  0.81415345  0.21512040     0.93600
O425        O  0.52448618  0.89553015  0.25743678    -0.79900
O426        O  0.45436631  0.86887104  0.33391116    -0.73500
Al427      Al  0.49995758  0.84741084  0.27976218     1.90100
O428        O  0.49623274  0.92070010  0.28550442    -0.72500
O429        O  0.38967973  0.84515555  0.29947694    -0.72400
O430        O  0.43322275  0.88982359  0.24826376    -0.78000
O431        O  0.38117901  0.78801164  0.29107643    -0.76200
O432        O  0.45330941  0.84212970  0.27519125    -1.12400
O433        O  0.42858804  0.76571346  0.27240358    -0.71600
C434        C  0.45220723  0.76752869  0.29336668     0.99200
C435        C  0.52245352  0.92442287  0.26617464     0.95600
Al436      Al  0.44430213  0.87828815  0.29074487     1.55600
O437        O  0.50088865  0.82448444  0.23949081    -0.76200
C438        C  0.36853802  0.80904062  0.30118003     0.99700
C439        C  0.48487072  0.86929025  0.34238860     0.94600
O440        O  0.50888956  0.87100895  0.32145068    -0.81500
O441        O  0.17708409  0.71004838  0.30288240    -0.81000
C442        C  0.11303526  0.57202741  0.22906707     0.98400
O443        O  0.14822002  0.59748919  0.23222134    -0.70100
O444        O  0.16293666  0.66554080  0.21575738    -0.73700
Al445      Al  0.17493105  0.64610934  0.25275058     1.49000
C446        C  0.15791049  0.69386724  0.21490922     0.93600
O447        O  0.07953154  0.65571039  0.25990500    -0.79900
O448        O  0.10974699  0.61371304  0.33380640    -0.73500
Al449      Al  0.12836997  0.68072038  0.28125555     1.90100
O450        O  0.05570558  0.60104164  0.28614881    -0.72500
O451        O  0.13529114  0.57579539  0.29747355    -0.72400
O452        O  0.08741512  0.57085568  0.24795267    -0.78000
O453        O  0.19138013  0.62685558  0.28710106    -0.76200
O454        O  0.13445716  0.64040737  0.27471224    -1.12400
O455        O  0.21049115  0.69599805  0.26884699    -0.71600
C456        C  0.20907264  0.71564228  0.29212916     0.99200
C457        C  0.05114165  0.62332392  0.26760988     0.95600
Al458      Al  0.09970772  0.59422560  0.29038196     1.55600
O459        O  0.14992062  0.70568779  0.24054490    -0.76200
C460        C  0.17184097  0.59272911  0.29725553     0.99700
C461        C  0.10837773  0.64269825  0.34385318     0.94600
O462        O  0.10577447  0.66486188  0.32370574    -0.81500
O463        O  0.11428226  0.49001551  0.99862476    -0.81000
C464        C  0.20610602  0.47891751  0.09629699     0.98400
O465        O  0.19942726  0.46226229  0.06888940    -0.70100
O466        O  0.12553640  0.41983166  0.05482809    -0.73700
Al467      Al  0.16741435  0.46025683  0.03256827     1.49000
C468        C  0.09073159  0.41116549  0.05597687     0.93600
O469        O  0.10110424  0.49003106  0.08882211    -0.79900
O470        O  0.19300979  0.56978747  0.04140908    -0.73500
Al471      Al  0.11041649  0.49041602  0.04360374     1.90100
O472        O  0.15812768  0.53929579  0.10027073    -0.72500
O473        O  0.23612943  0.53933227  0.04792006    -0.72400
O474        O  0.19588885  0.50300863  0.10236778    -0.78000
O475        O  0.21226000  0.49675503  0.00874164    -0.76200
O476        O  0.15686802  0.49500400  0.04889777    -1.12400
O477        O  0.13816350  0.45213238  0.99272489    -0.71600
C478        C  0.12277825  0.47011397  0.98071739     0.99200
C479        C  0.12366051  0.51543618  0.10835769     0.95600
Al480      Al  0.19269095  0.53464539  0.07101789     1.55600
O481        O  0.08073578  0.43457700  0.04639532    -0.76200
C482        C  0.24071044  0.52489024  0.02231519     0.99700
C483        C  0.16466530  0.57354103  0.03432646     0.94600
O484        O  0.13028856  0.54599741  0.03938088    -0.81500
O485        O  0.48399855  0.65220590  0.99467665    -0.81000
C486        C  0.49540101  0.74774615  0.09949355     0.98400
O487        O  0.50969618  0.76005673  0.07137012    -0.70100
O488        O  0.55335832  0.73379632  0.04913796    -0.73700
Al489      Al  0.51009474  0.73312375  0.03187138     1.49000
C490        C  0.56299734  0.70869447  0.04973896     0.93600
O491        O  0.48351479  0.63472368  0.08438886    -0.79900
O492        O  0.40211976  0.64650896  0.04143952    -0.73500
Al493      Al  0.48298154  0.64599611  0.03973638     1.90100
O494        O  0.43238285  0.63742234  0.09789665    -0.72500
O495        O  0.43196494  0.71998529  0.05380119    -0.72400
O496        O  0.47108633  0.71268923  0.10440361    -0.78000
O497        O  0.47125166  0.74008136  0.01212280    -0.76200
O498        O  0.47720630  0.68636188  0.04765721    -1.12400
O499        O  0.51619578  0.71491887  0.98977275    -0.71600
C500        C  0.50113656  0.68168636  0.97712201     0.99200
C501        C  0.45672582  0.62745465  0.10410004     0.95600
Al502      Al  0.43772917  0.67961248  0.07219053     1.55600
O503        O  0.53886694  0.67395653  0.04304174    -0.76200
C504        C  0.44422257  0.73955796  0.02812393     0.99700
C505        C  0.39928896  0.61569215  0.03122719     0.94600
O506        O  0.42718145  0.60944339  0.03453957    -0.81500
O507        O  0.26919932  0.50036938  0.29431077    -0.81000
C508        C  0.41247263  0.56760832  0.22836456     0.98400
O509        O  0.39258849  0.58348737  0.23243187    -0.70100
O510        O  0.32318449  0.53410661  0.21219721    -0.73700
Al511      Al  0.34210162  0.56358023  0.25063550     1.49000
C512        C  0.29429457  0.50069376  0.20913396     0.93600
O513        O  0.32410952  0.45403556  0.25822874    -0.79900
O514        O  0.36387257  0.52593884  0.33286006    -0.73500
Al515      Al  0.29942570  0.48008088  0.27624861     1.90100
O516        O  0.37615421  0.48277226  0.28798557    -0.72500
O517        O  0.40905856  0.58957868  0.29774938    -0.72400
O518        O  0.41106372  0.54337457  0.24863234    -0.78000
O519        O  0.36062281  0.59762864  0.28661022    -0.76200
O520        O  0.34231477  0.52600742  0.27244851    -1.12400
O521        O  0.29217356  0.55196782  0.26393495    -0.71600
C522        C  0.26802107  0.52930149  0.28445803     0.99200
C523        C  0.35445933  0.45598937  0.26889388     0.95600
Al524      Al  0.38641184  0.53465492  0.29051972     1.55600
O525        O  0.28065440  0.47878543  0.23346705    -0.76200
C526        C  0.39372103  0.61021054  0.29845783     0.99700
C527        C  0.33212984  0.49646502  0.34126991     0.94600
O528        O  0.30941873  0.47278786  0.32028930    -0.81500
O529        O  0.99143761  0.19246364  0.33053370    -0.81000
C530        C  0.89531729  0.10692685  0.43462695     0.98400
O531        O  0.88301744  0.10748185  0.40635294    -0.70100
O532        O  0.90749429  0.17691139  0.38283378    -0.73700
Al533      Al  0.91005836  0.13446325  0.36689111     1.49000
C534        C  0.93213119  0.21233045  0.38370749     0.93600
O535        O  0.00806253  0.21157526  0.41954502    -0.79900
O536        O  0.99861183  0.11847510  0.37809928    -0.73500
Al537      Al  0.99706434  0.19839956  0.37517111     1.90100
O538        O  0.00677027  0.15904829  0.43357873    -0.72500
O539        O  0.92558907  0.07260043  0.39093813    -0.72400
O540        O  0.93078096  0.11980717  0.43998893    -0.78000
O541        O  0.90471349  0.08835690  0.34832476    -0.76200
O542        O  0.95716655  0.15121991  0.38324015    -1.12400
O543        O  0.92859992  0.15788948  0.32481069    -0.71600
C544        C  0.96221187  0.17774633  0.31266578     0.99200
C545        C  0.01680771  0.19357536  0.43900741     0.95600
Al546      Al  0.96486050  0.12028002  0.40846954     1.55600
O547        O  0.96753500  0.22428316  0.37818018    -0.76200
C548        C  0.90663770  0.06329250  0.36496073     0.99700
C549        C  0.02896663  0.14685402  0.36683008     0.94600
O550        O  0.03493672  0.18096777  0.36989899    -0.81500
O551        O  0.13360753  0.12355564  0.62409012    -0.81000
C552        C  0.08297707  0.21203421  0.55802740     0.98400
O553        O  0.06459591  0.17597338  0.56074521    -0.70100
O554        O  0.11254008  0.15498922  0.53984517    -0.73700
Al555      Al  0.08069434  0.14256580  0.57707721     1.49000
C556        C  0.14297742  0.15326372  0.53803741     0.93600
O557        O  0.19302269  0.22568388  0.58783538    -0.79900
O558        O  0.12079351  0.20028673  0.66210945    -0.73500
Al559      Al  0.16154525  0.17508654  0.60596231     1.90100
O560        O  0.16790080  0.25351817  0.61667220    -0.72500
O561        O  0.05803808  0.18390826  0.62711727    -0.72400
O562        O  0.10794006  0.23310857  0.57872674    -0.78000
O563        O  0.04542289  0.12660481  0.61188659    -0.76200
O564        O  0.11877804  0.17734664  0.60114828    -1.12400
O565        O  0.08743636  0.10092751  0.58780607    -0.71600
C566        C  0.10431768  0.09541071  0.61098821     0.99200
C567        C  0.19357262  0.25577785  0.59735611     0.95600
Al568      Al  0.11404832  0.21474733  0.61984654     1.55600
O569        O  0.16157827  0.15581547  0.56344597    -0.76200
C570        C  0.03527988  0.14774728  0.62602848     0.99700
C571        C  0.14882789  0.19628563  0.67046576     0.94600
O572        O  0.17050617  0.19354670  0.64955119    -0.81500
O573        O  0.15182144  0.98464127  0.32398119    -0.81000
C574        C  0.16048460  0.08357783  0.42506454     0.98400
O575        O  0.17777112  0.09481496  0.39792494    -0.70100
O576        O  0.22075332  0.06591045  0.38124907    -0.73700
Al577      Al  0.17960950  0.06688785  0.36019331     1.49000
C578        C  0.22928699  0.04004260  0.38317198     0.93600
O579        O  0.14779566  0.96853868  0.41467719    -0.79900
O580        O  0.06930403  0.98059723  0.36634266    -0.73500
Al581      Al  0.14956945  0.97922216  0.36934052     1.90100
O582        O  0.09752845  0.97426071  0.42529725    -0.72500
O583        O  0.09965755  0.05448942  0.37635785    -0.72400
O584        O  0.13503150  0.04894065  0.42997018    -0.78000
O585        O  0.14314936  0.07598734  0.33768357    -0.76200
O586        O  0.14452068  0.02050581  0.37544602    -1.12400
O587        O  0.18716099  0.04738776  0.31929692    -0.71600
C588        C  0.17052381  0.01411670  0.30654084     0.99200
C589        C  0.12069028  0.96341604  0.43342749     0.95600
Al590      Al  0.10384038  0.01490320  0.39742283     1.55600
O591        O  0.20568081  0.00620222  0.37364135    -0.76200
C592        C  0.11480400  0.07532672  0.35175796     0.99700
C593        C  0.06590867  0.94858107  0.35954656     0.94600
O594        O  0.09404868  0.94301869  0.36390156    -0.81500
O595        O  0.84525258  0.04109983  0.63424066    -0.81000
C596        C  0.77696471  0.89913936  0.56520817     0.98400
O597        O  0.81256070  0.92331305  0.56878189    -0.70100
O598        O  0.83299008  0.99274542  0.55035845    -0.73700
Al599      Al  0.84123403  0.97216214  0.58892866     1.49000
C600        C  0.82838157  0.02128800  0.54839206     0.93600
O601        O  0.74699937  0.98595062  0.59202767    -0.79900
O602        O  0.77460540  0.94536228  0.66830885    -0.73500
Al603      Al  0.79615059  0.01078346  0.61326738     1.90100
O604        O  0.72165954  0.93290928  0.62051321    -0.72500
O605        O  0.79686363  0.90334957  0.63437331    -0.72400
O606        O  0.75165043  0.89963498  0.58350433    -0.78000
O607        O  0.85483246  0.95164353  0.62475538    -0.76200
O608        O  0.80076935  0.96923595  0.60914972    -1.12400
O609        O  0.87805228  0.02160499  0.60505893    -0.71600
C610        C  0.87706598  0.04474941  0.62514667     0.99200
C611        C  0.71778412  0.95495013  0.60128384     0.95600
Al612      Al  0.76414111  0.92419603  0.62557811     1.55600
O613        O  0.81796711  0.03277968  0.57266073    -0.76200
C614        C  0.83306667  0.91789125  0.63508076     0.99700
C615        C  0.77531582  0.97598702  0.67656014     0.94600
O616        O  0.77379239  0.99783312  0.65550580    -0.81500
O617        O  0.77894579  0.82030039  0.33273978    -0.81000
C618        C  0.85350312  0.78676609  0.43169050     0.98400
O619        O  0.85279454  0.77677922  0.40218616    -0.70100
O620        O  0.78283397  0.74273342  0.37841913    -0.73700
Al621      Al  0.82906152  0.78532898  0.36407534     1.49000
C622        C  0.74923683  0.73675520  0.38294538     0.93600
O623        O  0.76407610  0.81793703  0.42378067    -0.79900
O624        O  0.86340524  0.89395003  0.38395401    -0.73500
Al625      Al  0.77546607  0.81943230  0.37847847     1.90100
O626        O  0.82206861  0.86118967  0.43858533    -0.72500
O627        O  0.89980160  0.85558073  0.39125081    -0.72400
O628        O  0.84818930  0.81406135  0.43909205    -0.78000
O629        O  0.87782131  0.82381820  0.34606790    -0.76200
O630        O  0.81951016  0.81905240  0.38410377    -1.12400
O631        O  0.80719369  0.78709677  0.32336197    -0.71600
C632        C  0.79045660  0.80432617  0.31307465     0.99200
C633        C  0.78667574  0.84045214  0.44490613     0.95600
Al634      Al  0.85509598  0.85313716  0.41075733     1.55600
O635        O  0.74203697  0.76379197  0.38054948    -0.76200
C636        C  0.90584417  0.84727180  0.36319261     0.99700
C637        C  0.83818667  0.90157099  0.37440050     0.94600
O638        O  0.80218741  0.87605647  0.37562600    -0.81500
O639        O  0.92229303  0.81745730  0.63272276    -0.81000
C640        C  0.05548303  0.88940743  0.55165832     0.98400
O641        O  0.02756232  0.89535935  0.55255604    -0.70100
O642        O  0.95969299  0.83546657  0.54155986    -0.73700
Al643      Al  0.97960810  0.87296313  0.57503671     1.49000
C644        C  0.93062307  0.80222849  0.54462637     0.93600
O645        O  0.97580106  0.77306707  0.59073474    -0.79900
O646        O  0.01727688  0.85383711  0.65971009    -0.73500
Al647      Al  0.95023311  0.79666152  0.61120103     1.90100
O648        O  0.03201840  0.81030059  0.61442346    -0.72500
O649        O  0.05097529  0.91396603  0.61980020    -0.72400
O650        O  0.05947973  0.86953365  0.57331720    -0.78000
O651        O  0.99897143  0.91425659  0.60506317    -0.76200
O652        O  0.98889094  0.84354710  0.60048817    -1.12400
O653        O  0.92955276  0.85703308  0.59300934    -0.71600
C654        C  0.91457918  0.84117993  0.61989798     0.99200
C655        C  0.00942940  0.78034965  0.59822167     0.95600
Al656      Al  0.03613206  0.86036464  0.61587374     1.55600
O657        O  0.92061692  0.78673546  0.57222309    -0.76200
C658        C  0.03259762  0.93155841  0.61679843     0.99700
C659        C  0.99035371  0.82256739  0.67131506     0.94600
O660        O  0.96979565  0.79470776  0.65276382    -0.81500
O661        O  0.01206349  0.87267122  0.84625318    -0.81000
C662        C  0.87437551  0.80438141  0.92178036     0.98400
O663        O  0.89609492  0.83994656  0.91630733    -0.70100
O664        O  0.96658606  0.86060528  0.93113248    -0.73700
Al665      Al  0.94433474  0.86836229  0.89399144     1.49000
C666        C  0.99430980  0.85453719  0.93310218     0.93600
O667        O  0.95804016  0.77413476  0.88827407    -0.79900
O668        O  0.91291623  0.80246076  0.81543476    -0.73500
Al669      Al  0.98215204  0.82344045  0.86740225     1.90100
O670        O  0.90349708  0.74928903  0.86192020    -0.72500
O671        O  0.87213273  0.82388004  0.85277597    -0.72400
O672        O  0.87362072  0.77930951  0.90261892    -0.78000
O673        O  0.92239084  0.88120059  0.85904476    -0.76200
O674        O  0.94062852  0.82805868  0.87359226    -1.12400
O675        O  0.99295344  0.90490935  0.87634097    -0.71600
C676        C  0.01530148  0.90416148  0.85515452     0.99200
C677        C  0.92646175  0.74511628  0.87984622     0.95600
Al678      Al  0.89440277  0.79160996  0.85914062     1.55600
O679        O  0.00566274  0.84431514  0.90843875    -0.76200
C680        C  0.88777345  0.85993189  0.85044227     0.99700
C681        C  0.94304565  0.80292171  0.80530682     0.94600
O682        O  0.96680809  0.80183621  0.82473631    -0.81500
O683        O  0.16795541  0.02044452  0.14873698    -0.81000
C684        C  0.07926206  0.91887668  0.04779215     0.98400
O685        O  0.08344440  0.90809379  0.07567231    -0.70100
O686        O  0.15631916  0.93891024  0.09195356    -0.73700
Al687      Al  0.11422171  0.93762561  0.11311934     1.49000
C688        C  0.19135324  0.96492485  0.09097814     0.93600
O689        O  0.18321958  0.03511260  0.05869313    -0.79900
O690        O  0.09006935  0.02146490  0.10404621    -0.73500
Al691      Al  0.17268646  0.02526106  0.10365222     1.90100
O692        O  0.12703188  0.02794788  0.04628186    -0.72500
O693        O  0.04641886  0.94733901  0.09565943    -0.72400
O694        O  0.08991962  0.95348300  0.04227154    -0.78000
O695        O  0.06907276  0.92961122  0.13597569    -0.76200
O696        O  0.12613848  0.98337407  0.09716998    -1.12400
O697        O  0.14210847  0.95812951  0.15371321    -0.71600
C698        C  0.15807193  0.99148487  0.16631064     0.99200
C699        C  0.16168650  0.03897105  0.03904453     0.95600
Al700      Al  0.09136163  0.98740603  0.07409761     1.55600
O701        O  0.20191130  0.99872614  0.10057065    -0.76200
C702        C  0.04103739  0.92883467  0.12168311     0.99700
C703        C  0.11825399  0.05341230  0.11268772     0.94600
O704        O  0.15284212  0.06081825  0.10833993    -0.81500
O705        O  0.10174428  0.17364367  0.84796514    -0.81000
C706        C  0.17030880  0.10305637  0.91816098     0.98400
O707        O  0.13450369  0.08995844  0.91452341    -0.70100
O708        O  0.11560487  0.14021312  0.93306692    -0.73700
Al709      Al  0.10607417  0.11046639  0.89474016     1.49000
C710        C  0.11944974  0.17314978  0.93512363     0.93600
O711        O  0.19982312  0.21910896  0.89098232    -0.79900
O712        O  0.17210135  0.14926872  0.81504448    -0.73500
Al713      Al  0.15075017  0.19395512  0.86940158     1.90100
O714        O  0.22523173  0.19129813  0.86272457    -0.72500
O715        O  0.14871804  0.08455687  0.84879609    -0.72400
O716        O  0.19507550  0.12852646  0.89937427    -0.78000
O717        O  0.09146881  0.07605256  0.85892227    -0.76200
O718        O  0.14620552  0.14786948  0.87397501    -1.12400
O719        O  0.06943914  0.12293999  0.87927533    -0.71600
C720        C  0.07011924  0.14537087  0.85772238     0.99200
C721        C  0.22897702  0.21704869  0.88243937     0.95600
Al722      Al  0.18241226  0.13930543  0.85757234     1.55600
O723        O  0.12842480  0.19444258  0.91042593    -0.76200
C724        C  0.11224955  0.06351357  0.84776885     0.99700
C725        C  0.17251066  0.17939902  0.80602164     0.94600
O726        O  0.17356539  0.20310091  0.82682843    -0.81500
O727        O  0.79656612  0.95758639  0.85335751    -0.81000
C728        C  0.87031618  0.09742572  0.92397354     0.98400
O729        O  0.88306125  0.07491395  0.91924944    -0.70100
O730        O  0.83219919  0.00586708  0.93715449    -0.73700
Al731      Al  0.86191288  0.02608375  0.89891857     1.49000
C732        C  0.79820231  0.97776236  0.93972141     0.93600
O733        O  0.75321698  0.01219052  0.89444738    -0.79900
O734        O  0.82585331  0.05370436  0.81965545    -0.73500
Al735      Al  0.77787262  0.98758350  0.87411813     1.90100
O736        O  0.78355202  0.06525997  0.86611490    -0.72500
O737        O  0.88991300  0.09580219  0.85484868    -0.72400
O738        O  0.84523914  0.09732408  0.90526902    -0.78000
O739        O  0.89650033  0.04617867  0.86301355    -0.76200
O740        O  0.82488500  0.02906004  0.87868872    -1.12400
O741        O  0.84850655  0.97680901  0.88292825    -0.71600
C742        C  0.82486007  0.95442692  0.86208325     0.99200
C743        C  0.75590314  0.04293396  0.88443711     0.95600
Al744      Al  0.83508831  0.07427861  0.86258362     1.55600
O745        O  0.77603501  0.96570250  0.91550704    -0.76200
C746        C  0.91012730  0.08008115  0.85292094     0.99700
C747        C  0.79559059  0.02304598  0.81083459     0.94600
O748        O  0.77067896  0.00100974  0.83146768    -0.81500
O749        O  0.95791273  0.17756996  0.15552688    -0.81000
C750        C  0.05727064  0.19330548  0.05191339     0.98400
O751        O  0.06905670  0.20913626  0.07957970    -0.70100
O752        O  0.03900009  0.24975566  0.10182122    -0.73700
Al753      Al  0.04093327  0.20785932  0.11906722     1.49000
C754        C  0.01220397  0.25715500  0.10090605     0.93600
O755        O  0.94066898  0.17569033  0.06597030    -0.79900
O756        O  0.95725567  0.09878214  0.11087118    -0.73500
Al757      Al  0.95206563  0.17632096  0.11071416     1.90100
O758        O  0.94746353  0.12689428  0.05349448    -0.72500
O759        O  0.03135480  0.13089994  0.09869861    -0.72400
O760        O  0.02257202  0.16743420  0.04741602    -0.78000
O761        O  0.05124787  0.17135952  0.13913596    -0.76200
O762        O  0.99450028  0.17319798  0.10335492    -1.12400
O763        O  0.02093881  0.21176627  0.16091644    -0.71600
C764        C  0.98719441  0.19475483  0.17326560     0.99200
C765        C  0.93599213  0.14975808  0.04643988     0.95600
Al766      Al  0.98991819  0.13432291  0.07978750     1.55600
O767        O  0.97765894  0.23163558  0.10726187    -0.76200
C768        C  0.05141597  0.14442199  0.12389153     0.99700
C769        C  0.92531858  0.09433972  0.12041544     0.94600
O770        O  0.91735484  0.12075408  0.11617533    -0.81500
O771        O  0.79566849  0.80926008  0.15553838    -0.81000
C772        C  0.78376165  0.89636244  0.05470925     0.98400
O773        O  0.76888737  0.89269202  0.08281259    -0.70100
O774        O  0.72661002  0.82127830  0.10099310    -0.73700
Al775      Al  0.76808473  0.86341577  0.12083041     1.49000
C776        C  0.71770962  0.78682181  0.09783120     0.93600
O777        O  0.79823174  0.79586029  0.06547013    -0.79900
O778        O  0.87741038  0.88888401  0.11157491    -0.73500
Al779      Al  0.79730225  0.80564657  0.11047563     1.90100
O780        O  0.84830047  0.85189973  0.05364424    -0.72500
O781        O  0.84607699  0.93106172  0.10181704    -0.72400
O782        O  0.80882503  0.88702564  0.04924034    -0.78000
O783        O  0.80555822  0.90866641  0.14270806    -0.76200
O784        O  0.80219933  0.85177734  0.10438120    -1.12400
O785        O  0.76126011  0.83691765  0.16177839    -0.71600
C786        C  0.77787906  0.82018292  0.17371480     0.99200
C787        C  0.82498029  0.81733229  0.04631050     0.95600
Al788      Al  0.84180501  0.88668257  0.08114968     1.55600
O789        O  0.74101542  0.77604070  0.10625616    -0.76200
C790        C  0.83297739  0.93642670  0.12793061     0.99700
C791        C  0.88101996  0.86081798  0.11975019     0.94600
O792        O  0.85323943  0.82635386  0.11579794    -0.81500
C793        C  0.91088183  0.03449838  0.14915756     0.24400
C794        C  0.89694865  0.05636417  0.13424457    -0.23700
C795        C  0.85730673  0.03842730  0.12696244     0.19300
C796        C  0.83375594  0.99828456  0.12983588     0.24400
C797        C  0.84991807  0.97611930  0.13955450    -0.27200
C798        C  0.88778876  0.99463945  0.15116876     0.19300
F799        F  0.90369069  0.97381984  0.16119469    -0.13600
F800        F  0.94811646  0.05137578  0.15900234    -0.15900
F801        F  0.79647966  0.98073915  0.11966311    -0.15900
F802        F  0.84244999  0.05886231  0.11373034    -0.13600
C803        C  0.80067439  0.97688592  0.00026324     0.24400
C804        C  0.78549569  0.95713052  0.97088501    -0.23700
C805        C  0.76278255  0.91673932  0.97111429     0.19300
C806        C  0.75891153  0.89637166  0.99959502     0.24400
C807        C  0.77623484  0.91606715  0.02847671    -0.23600
C808        C  0.79590568  0.95643298  0.02888546     0.19300
F809        F  0.81444531  0.97607813  0.05609242    -0.13600
F810        F  0.82226908  0.01593001  0.00085391    -0.15900
F811        F  0.74127967  0.85752025  0.99815866    -0.15900
F812        F  0.74787689  0.89680982  0.94310920    -0.13600
C813        C  0.94274611  0.15435710  0.98694847     0.24400
C814        C  0.91897245  0.14654101  0.01429892    -0.23700
C815        C  0.87884544  0.13006740  0.01028840     0.19300
C816        C  0.86240821  0.11824669  0.97926298     0.24400
C817        C  0.88617170  0.12304462  0.95227682    -0.23600
C818        C  0.92654498  0.14290413  0.95621512     0.19300
F819        F  0.95008224  0.14725233  0.93073329    -0.13600
F820        F  0.98154934  0.17020632  0.99035660    -0.15900
F821        F  0.82329428  0.09811671  0.97625222    -0.15900
F822        F  0.85543083  0.12203227  0.03664016    -0.13600
C823        C  0.09490943  0.20965857  0.96684128     0.24400
C824        C  0.11145525  0.18609691  0.96634721    -0.23700
C825        C  0.11676867  0.17205115  0.99586451     0.19300
C826        C  0.10327207  0.17904919  0.02493513     0.24400
C827        C  0.08414584  0.20003445  0.02507517    -0.23600
C828        C  0.08097336  0.21618391  0.99601023     0.19300
F829        F  0.06145364  0.23548033  0.99549001    -0.13600
F830        F  0.08889678  0.22337728  0.93877894    -0.15900
F831        F  0.10478009  0.16140166  0.05235097    -0.15900
F832        F  0.13301857  0.14965244  0.99639678    -0.13600
C833        C  0.01536586  0.15784995  0.85385713     0.24400
C834        C  0.03247358  0.13643570  0.84440941    -0.23700
C835        C  0.00932831  0.10013610  0.83022859     0.19300
C836        C  0.96914810  0.08312576  0.82960373     0.24400
C837        C  0.95136778  0.10240643  0.84285918    -0.23600
C838        C  0.97493671  0.14110189  0.85265286     0.19300
F839        F  0.95880582  0.16119016  0.86448952    -0.13600
F840        F  0.03720105  0.19309373  0.86759026    -0.15900
F841        F  0.94750713  0.04660119  0.81837621    -0.15900
F842        F  0.02550769  0.07958042  0.81992122    -0.13600
C843        C  0.98265136  0.92109129  0.14996805     0.24400
C844        C  0.00086485  0.90438330  0.13320580    -0.23700
C845        C  0.97800683  0.86752851  0.11960627     0.19300
C846        C  0.93758539  0.85046469  0.11823574     0.24400
C847        C  0.91971220  0.86984964  0.13120209    -0.23600
C848        C  0.94232561  0.90373875  0.14929305     0.19300
F849        F  0.92555861  0.92168606  0.16411515    -0.13600
F850        F  0.00404789  0.95570816  0.16472973    -0.15900
F851        F  0.91668011  0.81747293  0.10101829    -0.15900
F852        F  0.99514199  0.84987035  0.10480567    -0.13600
C853        C  0.19648546  0.09608898  0.00332031     0.24400
C854        C  0.17602604  0.05599602  0.00703836    -0.23700
C855        C  0.16203365  0.03221190  0.97960027     0.19300
C856        C  0.16465612  0.04826157  0.94910069     0.24400
C857        C  0.18167763  0.08826080  0.94572893    -0.23600
C858        C  0.19947849  0.11221269  0.97263170     0.19300
F859        F  0.21512180  0.15077764  0.97003020    -0.13600
F860        F  0.20971248  0.11936591  0.02978979    -0.15900
F861        F  0.14699409  0.02456806  0.92349483    -0.15900
F862        F  0.14263199  0.99332235  0.98282942    -0.13600
C863        C  0.07316024  0.06778760  0.14262638     0.24400
C864        C  0.10881353  0.08181477  0.12631778    -0.23700
C865        C  0.13025317  0.12116427  0.11827251     0.19300
C866        C  0.11362095  0.14436179  0.12249407     0.24400
C867        C  0.07532029  0.12813657  0.13401152    -0.23600
C868        C  0.05652121  0.09061456  0.14611317     0.19300
F869        F  0.02034088  0.07482378  0.15860756    -0.13600
F870        F  0.05261411  0.03063188  0.15256435    -0.15900
F871        F  0.13334114  0.18153585  0.11240270    -0.15900
F872        F  0.16521454  0.13609162  0.10330241    -0.13600
C873        C  0.82632213  0.80902963  0.95598617     0.24400
C874        C  0.85090065  0.79409184  0.95160565    -0.23700
C875        C  0.86181162  0.78087531  0.97879004     0.19300
C876        C  0.85084003  0.78562488  0.01015406     0.24400
C877        C  0.82865428  0.80326076  0.01436133    -0.23600
C878        C  0.81517002  0.81342574  0.98710145     0.19300
F879        F  0.79395427  0.83075342  0.99078750    -0.13600
F880        F  0.81637187  0.82306566  0.93032682    -0.15900
F881        F  0.86461638  0.77620249  0.03640399    -0.15900
F882        F  0.88668915  0.76765335  0.97525789    -0.13600
C883        C  0.82710204  0.86304186  0.85489988     0.24400
C884        C  0.86475212  0.87799248  0.84206669    -0.23700
C885        C  0.88319760  0.91470663  0.82784108     0.19300
C886        C  0.86696422  0.93804918  0.83064606     0.24400
C887        C  0.83234745  0.92529312  0.84798380    -0.23600
C888        C  0.81130988  0.88692432  0.85848521     0.19300
F889        F  0.77765178  0.87393490  0.87521831    -0.13600
F890        F  0.80741096  0.82681629  0.86710342    -0.15900
F891        F  0.88678438  0.97452053  0.81902390    -0.15900
F892        F  0.91833060  0.92905685  0.81335202    -0.13600
C893        C  0.05429649  0.87343092  0.96540667     0.24400
C894        C  0.01466343  0.86158085  0.96442043    -0.23700
C895        C  0.99574805  0.86138157  0.99337366     0.19300
C896        C  0.01676574  0.87655884  0.02182631     0.24400
C897        C  0.05681948  0.89120112  0.02223039    -0.23600
C898        C  0.07529265  0.88855175  0.99412509     0.19300
F899        F  0.11419616  0.90380162  0.99367115    -0.13600
F900        F  0.07352343  0.87383601  0.93799663    -0.15900
F901        F  0.99874519  0.88138744  0.04781879    -0.15900
F902        F  0.95732218  0.84908905  0.99367743    -0.13600
C903        C  0.08367766  0.95900089  0.85031793     0.24400
C904        C  0.04463087  0.94158477  0.84125088    -0.23700
C905        C  0.03168898  0.96420449  0.82640669     0.19300
C906        C  0.05566205  0.00417838  0.82468101     0.24400
C907        C  0.09316470  0.02238543  0.83772375    -0.23600
C908        C  0.10806660  0.99919272  0.84799085     0.19300
F909        F  0.14490144  0.01560913  0.85901238    -0.13600
F910        F  0.09696816  0.93779980  0.86472068    -0.15900
F911        F  0.04120950  0.02528357  0.81230412    -0.15900
F912        F  0.99446010  0.94784227  0.81638360    -0.13600
C913        C  0.98128693  0.84857044  0.72370113     0.24400
C914        C  0.98069438  0.81823160  0.70629147    -0.23700
C915        C  0.96584851  0.78212131  0.72143794     0.19300
C916        C  0.95237661  0.77666891  0.75352774     0.24400
C917        C  0.95251819  0.80682702  0.77058433    -0.23600
C918        C  0.96702783  0.84278020  0.75557252     0.19300
F919        F  0.96819204  0.87251785  0.77213136    -0.13600
F920        F  0.99432391  0.88336476  0.70948308    -0.15900
F921        F  0.93906306  0.74194789  0.76797430    -0.15900
F922        F  0.96466041  0.75217961  0.70521987    -0.13600
C923        C  0.79870740  0.78994362  0.25497009     0.24400
C924        C  0.78483574  0.80646811  0.27747463    -0.23700
C925        C  0.76669627  0.82610565  0.26541356     0.19300
C926        C  0.76338598  0.82977321  0.23185333     0.24400
C927        C  0.77797143  0.81382556  0.20941941    -0.23600
C928        C  0.79523769  0.79342090  0.22158929     0.19300
F929        F  0.80963418  0.77710865  0.20125065    -0.13600
F930        F  0.81649395  0.77084551  0.26505369    -0.15900
F931        F  0.74675392  0.84985100  0.22147407    -0.15900
F932        F  0.75267129  0.84253863  0.28599005    -0.13600
C933        C  0.84623643  0.76423718  0.48843395     0.24400
C934        C  0.86530202  0.77081023  0.45830000    -0.23700
C935        C  0.90273449  0.77642861  0.45742012     0.19300
C936        C  0.92384004  0.78406870  0.48613031     0.24400
C937        C  0.90649583  0.78321547  0.51608226    -0.23600
C938        C  0.86667937  0.77003791  0.51730681     0.19300
F939        F  0.84892187  0.76778396  0.54610763    -0.13600
F940        F  0.80921500  0.75673447  0.48982533    -0.15900
F941        F  0.96195440  0.79526631  0.48450672    -0.15900
F942        F  0.92048401  0.77942979  0.42865484    -0.13600
C943        C  0.80052162  0.02717491  0.71904555     0.24400
C944        C  0.77920036  0.98775912  0.71087175    -0.23700
C945        C  0.76295088  0.96030556  0.73567400     0.19300
C946        C  0.76757887  0.97197338  0.76810978     0.24400
C947        C  0.78917453  0.01140876  0.77636056    -0.23600
C948        C  0.80573836  0.03884833  0.75149745     0.19300
F949        F  0.82687080  0.07699112  0.75851801    -0.13600
F950        F  0.81748974  0.05452786  0.69565871    -0.15900
F951        F  0.75188104  0.94442715  0.79145009    -0.15900
F952        F  0.74227409  0.92217156  0.72854188    -0.13600
C953        C  0.79162026  0.85573664  0.53445531     0.24400
C954        C  0.76719194  0.87087736  0.53885973    -0.23700
C955        C  0.74198732  0.86718308  0.51367647     0.19300
C956        C  0.74501571  0.85309275  0.48309060     0.24400
C957        C  0.77339853  0.84298687  0.47779466    -0.23600
C958        C  0.79486053  0.84219827  0.50421038     0.19300
F959        F  0.82175578  0.83164185  0.49998498    -0.13600
F960        F  0.81577259  0.85817883  0.55851603    -0.15900
F961        F  0.72338614  0.85332158  0.45798412    -0.15900
F962        F  0.71786868  0.88125295  0.51749138    -0.13600
C963        C  0.82996260  0.85434497  0.63381508     0.24400
C964        C  0.84979568  0.89351469  0.64307832    -0.23700
C965        C  0.88841494  0.91038625  0.65335983     0.19300
C966        C  0.90802185  0.89007904  0.65055129     0.24400
C967        C  0.88989434  0.85338139  0.63627899    -0.23600
C968        C  0.85020286  0.83473775  0.62967107     0.19300
F969        F  0.83199222  0.79905595  0.61621963    -0.13600
F970        F  0.79219216  0.83642007  0.62494110    -0.15900
F971        F  0.94590555  0.90756685  0.65891025    -0.15900
F972        F  0.90797670  0.94741770  0.66387544    -0.13600
C973        C  0.15394943  0.96635701  0.22325225     0.24400
C974        C  0.16479473  0.99753103  0.20207041    -0.23700
C975        C  0.18052733  0.03475725  0.21567922     0.19300
C976        C  0.18377926  0.04037000  0.24937628     0.24400
C977        C  0.17140893  0.00897151  0.27062280    -0.23600
C978        C  0.15710216  0.97197514  0.25699343     0.19300
F979        F  0.14533508  0.94069002  0.27628161    -0.13600
F980        F  0.13950636  0.93016171  0.21147637    -0.15900
F981        F  0.19764898  0.07651616  0.26108637    -0.15900
F982        F  0.19195295  0.06611181  0.19652501    -0.13600
C983        C  0.10273403  0.94833492  0.52286539     0.24400
C984        C  0.08363441  0.90803103  0.52507092    -0.23700
C985        C  0.08348951  0.88664597  0.49798399     0.19300
C986        C  0.09945001  0.90523657  0.46825170     0.24400
C987        C  0.11522210  0.94519371  0.46546803    -0.23600
C988        C  0.11832515  0.96675055  0.49329526     0.19300
F989        F  0.13374004  0.00542330  0.49118229    -0.13600
F990        F  0.10295098  0.96953913  0.54867078    -0.15900
F991        F  0.09598007  0.88390164  0.44153287    -0.15900
F992        F  0.06429330  0.84763490  0.49937100    -0.13600
C993        C  0.96195850  0.89938885  0.33296650     0.24400
C994        C  0.94630134  0.86566666  0.35153058    -0.23700
C995        C  0.97153021  0.85532937  0.36553377     0.19300
C996        C  0.01164184  0.88062094  0.36478662     0.24400
C997        C  0.02702546  0.91690488  0.35014116    -0.23600
C998        C  0.00206138  0.92506416  0.33247781     0.19300
F999        F  0.01626692  0.95921133  0.31680948    -0.13600
F1000       F  0.93826180  0.90889442  0.31751967    -0.15900
F1001       F  0.03480961  0.87144151  0.38162688    -0.15900
F1002       F  0.95716975  0.82180435  0.38188044    -0.13600
C1003       C  0.17114179  0.16147684  0.74742350     0.24400
C1004       C  0.17014325  0.18637991  0.77096265    -0.23700
C1005       C  0.16353168  0.21594396  0.76070260     0.19300
C1006       C  0.15637712  0.21922347  0.72797318     0.24400
C1007       C  0.15645632  0.19362758  0.70492851    -0.23600
C1008       C  0.16452568  0.16520948  0.71480572     0.19300
F1009       F  0.16453231  0.13992451  0.69294202    -0.13600
F1010       F  0.17779517  0.13288536  0.75586726    -0.15900
F1011       F  0.14993978  0.24772832  0.71871827    -0.15900
F1012       F  0.16311390  0.24126571  0.78228360    -0.13600
C1013       C  0.18448963  0.13562915  0.50468372     0.24400
C1014       C  0.15484203  0.14471943  0.50644005    -0.23700
C1015       C  0.13289775  0.14013507  0.47844754     0.19300
C1016       C  0.13750116  0.12297690  0.45078182     0.24400
C1017       C  0.16485091  0.11122999  0.45002151    -0.23600
C1018       C  0.18918598  0.11869532  0.47662707     0.19300
F1019       F  0.21528185  0.10681975  0.47643118    -0.13600
F1020       F  0.20703590  0.14034803  0.53077279    -0.15900
F1021       F  0.11223370  0.11403048  0.42597424    -0.15900
F1022       F  0.10462895  0.14918502  0.47849945    -0.13600
C1023       C  0.93932453  0.06753165  0.65341815     0.24400
C1024       C  0.91449568  0.07651007  0.63682742    -0.23700
C1025       C  0.92952214  0.11374782  0.62412817     0.19300
C1026       C  0.96959407  0.13995905  0.62449011     0.24400
C1027       C  0.99485812  0.12912961  0.63775272    -0.23600
C1028       C  0.97915844  0.09380228  0.65417022     0.19300
F1029       F  0.00289487  0.08326748  0.66817371    -0.13600
F1030       F  0.92540477  0.03188999  0.66619924    -0.15900
F1031       F  0.98396004  0.17369751  0.60814413    -0.15900
F1032       F  0.90609042  0.12307765  0.60797695    -0.13600
C1033       C  0.09229613  0.99720802  0.62557468     0.24400
C1034       C  0.05151806  0.97361144  0.62396852    -0.23700
C1035       C  0.02927254  0.99157937  0.62423374     0.19300
C1036       C  0.04710373  0.03155578  0.62314690     0.24400
C1037       C  0.08767424  0.05497480  0.62172000    -0.23600
C1038       C  0.11020141  0.03761064  0.62441195     0.19300
F1039       F  0.14937356  0.05939908  0.62280025    -0.13600
F1040       F  0.11504124  0.98132127  0.62543286    -0.15900
F1041       F  0.02435035  0.04735348  0.62114725    -0.15900
F1042       F  0.99003897  0.97061373  0.62323332    -0.13600
C1043       C  0.01251817  0.20701805  0.23041176     0.24400
C1044       C  0.98110820  0.19335839  0.20901976    -0.23700
C1045       C  0.94321229  0.17569351  0.22222058     0.19300
C1046       C  0.93700194  0.17107536  0.25576672     0.24400
C1047       C  0.96838943  0.18396577  0.27707522    -0.23600
C1048       C  0.00631225  0.20240634  0.26392130     0.19300
F1049       F  0.03779589  0.21530585  0.28331634    -0.13600
F1050       F  0.04942257  0.22388206  0.21903181    -0.15900
F1051       F  0.90008372  0.15355225  0.26721941    -0.15900
F1052       F  0.91171859  0.16211331  0.20275761    -0.13600
C1053       C  0.84323187  0.04707010  0.45949968     0.24400
C1054       C  0.86847166  0.08708460  0.46145806    -0.23700
C1055       C  0.87568752  0.10550535  0.49165694     0.19300
C1056       C  0.86008257  0.08396492  0.51984731     0.24400
C1057       C  0.83802867  0.04357814  0.51823223    -0.23600
C1058       C  0.82844793  0.02529056  0.48784506     0.19300
F1059       F  0.80626733  0.98636749  0.48573626    -0.13600
F1060       F  0.83632258  0.02865412  0.43055434    -0.15900
F1061       F  0.86962637  0.10235583  0.54893927    -0.15900
F1062       F  0.90047598  0.14404261  0.49402598    -0.13600
C1063       C  0.02246860  0.21898917  0.49512638     0.24400
C1064       C  0.03974710  0.21264689  0.46790401    -0.23700
C1065       C  0.07713513  0.21846052  0.47026015     0.19300
C1066       C  0.09541244  0.22635381  0.50035815     0.24400
C1067       C  0.07590634  0.22732613  0.52846783    -0.23600
C1068       C  0.04047632  0.22609600  0.52546300     0.19300
F1069       F  0.02117257  0.22676813  0.55243283    -0.13600
F1070       F  0.98639931  0.21387234  0.49307231    -0.15900
F1071       F  0.12941951  0.22695937  0.50278762    -0.15900
F1072       F  0.09428593  0.21278745  0.44398712    -0.13600
C1073       C  0.84614063  0.99892240  0.36187628     0.24400
C1074       C  0.88611011  0.02224125  0.35587679    -0.23700
C1075       C  0.90799276  0.00468858  0.35039905     0.19300
C1076       C  0.89126813  0.96498990  0.35363201     0.24400
C1077       C  0.85222358  0.94171910  0.36332257    -0.23600
C1078       C  0.82931433  0.95890864  0.36604074     0.19300
F1079       F  0.79174365  0.93781836  0.37562352    -0.13600
F1080       F  0.82421639  0.01531275  0.36670201    -0.15900
F1081       F  0.91435442  0.94982175  0.34955993    -0.15900
F1082       F  0.94655811  0.02642420  0.34453981    -0.13600
C1083       C  0.11748993  0.13791795  0.35731709     0.24400
C1084       C  0.10058380  0.10132759  0.34257628    -0.23700
C1085       C  0.06389444  0.08591739  0.32856443     0.19300
C1086       C  0.04294444  0.10481725  0.33218277     0.24400
C1087       C  0.05729023  0.13818494  0.35151006    -0.23600
C1088       C  0.09574870  0.15600850  0.36226067     0.19300
F1089       F  0.11060579  0.18824732  0.38083204    -0.13600
F1090       F  0.15316912  0.15363050  0.37078766    -0.15900
F1091       F  0.00693025  0.08862000  0.31935405    -0.15900
F1092       F  0.04681572  0.05075972  0.31417822    -0.13600
C1093       C  0.47635721  0.62867570  0.16145676     0.24400
C1094       C  0.45354253  0.60767151  0.13485759    -0.23700
C1095       C  0.42361434  0.56951484  0.13933959     0.19300
C1096       C  0.41431516  0.55368861  0.17058657     0.24400
C1097       C  0.43416746  0.57624179  0.19770828    -0.23600
C1098       C  0.46643724  0.61316802  0.19283664     0.19300
F1099       F  0.48576470  0.63557895  0.21870083    -0.13600
F1100       F  0.50571496  0.66551640  0.15743767    -0.15900
F1101       F  0.38271388  0.51813671  0.17480883    -0.15900
F1102       F  0.40145536  0.54873492  0.11381837    -0.13600
C1103       C  0.63254920  0.75581464  0.04303038     0.24400
C1104       C  0.60374241  0.72187612  0.05771465    -0.23700
C1105       C  0.61400567  0.70566461  0.08325250     0.19300
C1106       C  0.65219723  0.72498835  0.09537727     0.24400
C1107       C  0.68006899  0.76067277  0.08211833    -0.23600
C1108       C  0.67003463  0.77493414  0.05512397     0.19300
F1109       F  0.69626099  0.80897252  0.04152330    -0.13600
F1110       F  0.62375997  0.77181715  0.01797940    -0.15900
F1111       F  0.66094637  0.71062062  0.12158758    -0.15900
F1112       F  0.58649292  0.67314368  0.09818252    -0.13600
C1113       C  0.21458576  0.45057038  0.14688095     0.24400
C1114       C  0.23085105  0.47546216  0.12036811    -0.23700
C1115       C  0.26986113  0.50481131  0.12137429     0.19300
C1116       C  0.29164133  0.51110379  0.14939098     0.24400
C1117       C  0.27457363  0.48830701  0.17723267    -0.23600
C1118       C  0.23638362  0.45660283  0.17505881     0.19300
F1119       F  0.21888135  0.43337360  0.20103259    -0.13600
F1120       F  0.17667201  0.42258715  0.14654223    -0.15900
F1121       F  0.32851114  0.54141626  0.14989299    -0.15900
F1122       F  0.28575528  0.53012283  0.09641695    -0.13600
C1123       C  0.30030773  0.57654767  0.99660914     0.24400
C1124       C  0.28069402  0.54007332  0.01093871    -0.23700
C1125       C  0.30226332  0.52493705  0.02450394     0.19300
C1126       C  0.34255237  0.54823968  0.02798063     0.24400
C1127       C  0.36150884  0.58666228  0.01740941    -0.23600
C1128       C  0.34048259  0.59948227  0.99943270     0.19300
F1129       F  0.35845766  0.63574927  0.98731057    -0.13600
F1130       F  0.28015694  0.59154906  0.98304610    -0.15900
F1131       F  0.36196283  0.53487156  0.04525520    -0.15900
F1132       F  0.28374861  0.48944418  0.03829003    -0.13600
C1133       C  0.03486174  0.34355953  0.04992069     0.24400
C1134       C  0.06239174  0.37329646  0.06967805    -0.23700
C1135       C  0.06776284  0.36487345  0.10163397     0.19300
C1136       C  0.04815839  0.32695413  0.11291720     0.24400
C1137       C  0.02277803  0.29678539  0.09246785    -0.23600
C1138       C  0.01505184  0.30539724  0.06131931     0.19300
F1139       F  0.99118806  0.27653958  0.04095786    -0.13600
F1140       F  0.02990645  0.35090263  0.01872000    -0.15900
F1141       F  0.05594899  0.31928499  0.14311484    -0.15900
F1142       F  0.09399535  0.39321873  0.12122351    -0.13600
C1143       C  0.17624071  0.53267329  0.29532728     0.24400
C1144       C  0.19228950  0.57162821  0.30452768    -0.23700
C1145       C  0.23132849  0.59246442  0.31376175     0.19300
C1146       C  0.25482124  0.57655170  0.31021860     0.24400
C1147       C  0.24004476  0.53945952  0.29744790    -0.23600
C1148       C  0.20018855  0.51681391  0.29140306     0.19300
F1149       F  0.18528489  0.48101129  0.27859688    -0.13600
F1150       F  0.13841973  0.51126266  0.28681616    -0.15900
F1151       F  0.29308913  0.59873238  0.31665720    -0.15900
F1152       F  0.24767823  0.62945971  0.32384999    -0.13600
C1153       C  0.08192565  0.52672678  0.14693622     0.24400
C1154       C  0.11100798  0.51772149  0.14135298    -0.23700
C1155       C  0.13302668  0.51731921  0.16741778     0.19300
C1156       C  0.12951306  0.53034902  0.19781380     0.24400
C1157       C  0.10408011  0.54426797  0.20258929    -0.23600
C1158       C  0.07852028  0.54016414  0.17762362     0.19300
F1159       F  0.05373985  0.55339926  0.18171957    -0.13600
F1160       F  0.05985471  0.52646049  0.12198093    -0.15900
F1161       F  0.15420303  0.53351716  0.22164656    -0.15900
F1162       F  0.16031022  0.50733056  0.16275523    -0.13600
C1163       C  0.30806088  0.75378188  0.32419236     0.24400
C1164       C  0.32720430  0.79084312  0.31059359    -0.23700
C1165       C  0.30489764  0.80637251  0.29929065     0.19300
C1166       C  0.26458713  0.78282969  0.29645021     0.24400
C1167       C  0.24617561  0.74433102  0.30650904    -0.23600
C1168       C  0.26776611  0.73097891  0.32258335     0.19300
F1169       F  0.25000544  0.69440447  0.33392510    -0.13600
F1170       F  0.32854656  0.73859697  0.33676875    -0.15900
F1171       F  0.24422641  0.79628921  0.28074849    -0.15900
F1172       F  0.32234220  0.84280253  0.28750336    -0.13600
C1173       C  0.48372490  0.79573545  0.12605868     0.24400
C1174       C  0.50239833  0.77433485  0.12645470    -0.23700
C1175       C  0.51813210  0.77068361  0.15561901     0.19300
C1176       C  0.51325844  0.78639685  0.18440444     0.24400
C1177       C  0.49180890  0.80522488  0.18432974    -0.23600
C1178       C  0.47866570  0.81127564  0.15469355     0.19300
F1179       F  0.45884877  0.83027897  0.15375049    -0.13600
F1180       F  0.46619722  0.79763988  0.09875627    -0.15900
F1181       F  0.52634897  0.78006460  0.21268956    -0.15900
F1182       F  0.53557389  0.74940990  0.15661600    -0.13600
C1183       C  0.41135072  0.70698435  0.32345736     0.24400
C1184       C  0.44581906  0.73088969  0.30643355    -0.23700
C1185       C  0.46773513  0.71534279  0.29434504     0.19300
C1186       C  0.45286951  0.67550573  0.29565682     0.24400
C1187       C  0.41580464  0.65095868  0.30884324    -0.23600
C1188       C  0.39662421  0.66731217  0.32491895     0.19300
F1189       F  0.36220160  0.64454555  0.33995855    -0.13600
F1190       F  0.39017339  0.72163186  0.33600507    -0.15900
F1191       F  0.47244386  0.66064545  0.28041554    -0.15900
F1192       F  0.50110301  0.73798289  0.27773976    -0.13600
C1193       C  0.26874263  0.93748894  0.08606838     0.24400
C1194       C  0.25709222  0.91491584  0.05761886    -0.23700
C1195       C  0.22871744  0.91501505  0.03794477     0.19300
C1196       C  0.20997922  0.93454627  0.04775503     0.24400
C1197       C  0.21902585  0.95436038  0.07752471    -0.23600
C1198       C  0.24974754  0.95718193  0.09599926     0.19300
F1199       F  0.25888173  0.97591109  0.12495158    -0.13600
F1200       F  0.29586377  0.93757837  0.10564504    -0.15900
F1201       F  0.18114114  0.93218784  0.02903570    -0.15900
F1202       F  0.21745195  0.89410420  0.01004221    -0.13600
C1203       C  0.16714710  0.66847167  0.02840562     0.24400
C1204       C  0.20535227  0.69219302  0.01712155    -0.23700
C1205       C  0.22478513  0.67483956  0.00369092     0.19300
C1206       C  0.20905413  0.63512369  0.00591558     0.24400
C1207       C  0.17357140  0.61186075  0.02213611    -0.23600
C1208       C  0.15138926  0.62843681  0.03129650     0.19300
F1209       F  0.11636267  0.60678468  0.04587520    -0.13600
F1210       F  0.14633306  0.68441795  0.03893501    -0.15900
F1211       F  0.23013026  0.61982506  0.99451308    -0.15900
F1212       F  0.26048021  0.69672311  0.99064556    -0.13600
C1213       C  0.17185943  0.71539525  0.12535825     0.24400
C1214       C  0.19069502  0.75569914  0.12534313    -0.23700
C1215       C  0.19292108  0.77509256  0.15432918     0.19300
C1216       C  0.17919807  0.75459093  0.18347365     0.24400
C1217       C  0.16366428  0.71445313  0.18389428    -0.23600
C1218       C  0.15825346  0.69487352  0.15430577     0.19300
F1219       F  0.14247704  0.65607003  0.15364688    -0.13600
F1220       F  0.17158716  0.69623883  0.09818387    -0.15900
F1221       F  0.18487416  0.77445496  0.21158310    -0.15900
F1222       F  0.21193836  0.81414035  0.15491313    -0.13600
C1223       C  0.39705725  0.89220072  0.14562904     0.24400
C1224       C  0.35704306  0.86739091  0.14163969    -0.23700
C1225       C  0.33363771  0.84946019  0.16883874     0.19300
C1226       C  0.35034791  0.85263820  0.19905124     0.24400
C1227       C  0.39076264  0.87405937  0.20262267    -0.23600
C1228       C  0.41393414  0.89565357  0.17619228     0.19300
F1229       F  0.45303344  0.91619017  0.17897529    -0.13600
F1230       F  0.42007552  0.90967254  0.11942963    -0.15900
F1231       F  0.32730069  0.83135638  0.22407548    -0.15900
F1232       F  0.29479080  0.82602489  0.16553928    -0.13600
C1233       C  0.38990702  0.74473700  0.00599369     0.24400
C1234       C  0.42735568  0.76301378  0.01856991    -0.23700
C1235       C  0.44416684  0.80130513  0.02947956     0.19300
C1236       C  0.42140528  0.81850082  0.03298546     0.24400
C1237       C  0.38217077  0.79796727  0.02409159    -0.23600
C1238       C  0.36797809  0.76257569  0.00786600     0.19300
F1239       F  0.33161062  0.74391209  0.99591900    -0.13600
F1240       F  0.37352841  0.70844138  0.99408171    -0.15900
F1241       F  0.43659504  0.85328619  0.04780690    -0.15900
F1242       F  0.48160058  0.82071294  0.03928746    -0.13600
C1243       C  0.48787942  0.87715745  0.43410595     0.24400
C1244       C  0.50426108  0.85449515  0.44220632    -0.23700
C1245       C  0.51562000  0.83859209  0.41720753     0.19300
C1246       C  0.51002241  0.84437601  0.38487799     0.24400
C1247       C  0.49252443  0.86586649  0.37675520    -0.23600
C1248       C  0.48169365  0.88241848  0.40159654     0.19300
F1249       F  0.46529171  0.90374858  0.39443250    -0.13600
F1250       F  0.47648590  0.89310049  0.45757313    -0.15900
F1251       F  0.52036109  0.82743390  0.36152764    -0.15900
F1252       F  0.53191679  0.81707201  0.42396751    -0.13600
C1253       C  0.60896886  0.91030816  0.59848447     0.24400
C1254       C  0.60228574  0.90586514  0.56483572    -0.23700
C1255       C  0.63420468  0.92227473  0.54339979     0.19300
C1256       C  0.67210345  0.94117354  0.55538992     0.24400
C1257       C  0.67869615  0.94296796  0.58900354    -0.23600
C1258       C  0.64687822  0.92818778  0.61046669     0.19300
F1259       F  0.65252874  0.92980275  0.64306776    -0.13600
F1260       F  0.57879405  0.89451116  0.61975051    -0.15900
F1261       F  0.70224465  0.95485209  0.53411370    -0.15900
F1262       F  0.62861213  0.91852984  0.51076495    -0.13600
C1263       C  0.51686806  0.70756989  0.91959338     0.24400
C1264       C  0.50251972  0.67632219  0.94129285    -0.23700
C1265       C  0.48767253  0.63898560  0.92823366     0.19300
C1266       C  0.48547514  0.63290384  0.89468125     0.24400
C1267       C  0.49810673  0.66386865  0.87292904    -0.23600
C1268       C  0.51479560  0.70146500  0.88587259     0.19300
F1269       F  0.52830185  0.73251086  0.86600678    -0.13600
F1270       F  0.53202504  0.74408968  0.93083188    -0.15900
F1271       F  0.47020862  0.59626909  0.88365664    -0.15900
F1272       F  0.47448454  0.60775549  0.94784284    -0.13600
C1273       C  0.48788830  0.69108611  0.64777205     0.24400
C1274       C  0.50588333  0.71498438  0.67458226    -0.23700
C1275       C  0.53017008  0.75479185  0.66984548     0.19300
C1276       C  0.53366038  0.77078552  0.63884486     0.24400
C1277       C  0.51262403  0.74698243  0.61263398    -0.23600
C1278       C  0.49130723  0.70688842  0.61707635     0.19300
F1279       F  0.47037193  0.68323433  0.59232430    -0.13600
F1280       F  0.46419329  0.65259244  0.65183694    -0.15900
F1281       F  0.55357442  0.80962673  0.63533170    -0.15900
F1282       F  0.54704904  0.77842118  0.69567653    -0.13600
C1283       C  0.12289885  0.69823474  0.42272841     0.24400
C1284       C  0.12378052  0.67324544  0.44573166    -0.23700
C1285       C  0.11737436  0.63717639  0.43553578     0.19300
C1286       C  0.11156762  0.62679146  0.40264048     0.24400
C1287       C  0.11119019  0.65199562  0.37923089    -0.23600
C1288       C  0.11635924  0.68770199  0.38988655     0.19300
F1289       F  0.11600731  0.71306671  0.36853792    -0.13600
F1290       F  0.12775113  0.73267535  0.43216918    -0.15900
F1291       F  0.10698305  0.59228273  0.39378969    -0.15900
F1292       F  0.11815426  0.61243790  0.45734768    -0.13600
C1293       C  0.34244311  0.76548068  0.49722318     0.24400
C1294       C  0.36674832  0.80075441  0.51273982    -0.23700
C1295       C  0.35113666  0.82315586  0.52340260     0.19300
C1296       C  0.31088591  0.80788043  0.52273304     0.24400
C1297       C  0.28615367  0.77007050  0.51156096    -0.23600
C1298       C  0.30251947  0.75053115  0.49624816     0.19300
F1299       F  0.27954320  0.71561366  0.48246107    -0.13600
F1300       F  0.35700590  0.74373817  0.48592184    -0.15900
F1301       F  0.29593903  0.82810986  0.53656523    -0.15900
F1302       F  0.37410086  0.85751537  0.53817533    -0.13600
C1303       C  0.04689986  0.73188513  0.54255260     0.24400
C1304       C  0.06192311  0.71640274  0.56471768    -0.23700
C1305       C  0.05573398  0.71852602  0.59819149     0.19300
C1306       C  0.03731405  0.73820083  0.60927979     0.24400
C1307       C  0.02355219  0.75476942  0.58704379    -0.23600
C1308       C  0.02733696  0.75031697  0.55361148     0.19300
F1309       F  0.01459693  0.76635659  0.53167525    -0.13600
F1310       F  0.05253881  0.73046825  0.51012466    -0.15900
F1311       F  0.03390852  0.74208539  0.64172927    -0.15900
F1312       F  0.07015487  0.70420804  0.62021283    -0.13600
C1313       C  0.34538168  0.86774182  0.89797563     0.24400
C1314       C  0.31487000  0.86040085  0.87704231    -0.23700
C1315       C  0.27923568  0.85271562  0.89063122     0.19300
C1316       C  0.27351187  0.85014829  0.92420338     0.24400
C1317       C  0.30326456  0.85536983  0.94515908    -0.23600
C1318       C  0.33971038  0.86532942  0.93167394     0.19300
F1319       F  0.36962475  0.87124263  0.95091307    -0.13600
F1320       F  0.38017910  0.87539954  0.88593458    -0.15900
F1321       F  0.23855344  0.84218058  0.93607559    -0.15900
F1322       F  0.24940996  0.84709032  0.87141463    -0.13600
C1323       C  0.41838377  0.87421554  0.66878167     0.24400
C1324       C  0.40415924  0.84573621  0.69271414    -0.23700
C1325       C  0.40910813  0.81392071  0.68938782     0.19300
C1326       C  0.42656555  0.80956017  0.66176140     0.24400
C1327       C  0.43852199  0.83656796  0.63637873    -0.23600
C1328       C  0.43566032  0.86981415  0.64071230     0.19300
F1329       F  0.44718820  0.89683632  0.61703231    -0.13600
F1330       F  0.41312120  0.90475698  0.67155852    -0.15900
F1331       F  0.42967316  0.77767122  0.65926675    -0.15900
F1332       F  0.39455824  0.78548781  0.71198004    -0.13600
C1333       C  0.43557067  0.79890207  0.77877969     0.24400
C1334       C  0.40117892  0.78472719  0.79709160    -0.23700
C1335       C  0.38829553  0.75120330  0.81547119     0.19300
C1336       C  0.40729362  0.73019790  0.81306643     0.24400
C1337       C  0.43885483  0.74180586  0.79163219    -0.23600
C1338       C  0.45420892  0.77750103  0.77591015     0.19300
F1339       F  0.48456276  0.78959145  0.75505120    -0.13600
F1340       F  0.44898996  0.83167549  0.76116986    -0.15900
F1341       F  0.39336193  0.69705144  0.83011187    -0.15900
F1342       F  0.35564108  0.73726116  0.83378444    -0.13600
C1343       C  0.20027755  0.77767208  0.68153554     0.24400
C1344       C  0.23911110  0.80594683  0.68651714    -0.23700
C1345       C  0.26163656  0.82830961  0.66020026     0.19300
C1346       C  0.24693738  0.81922879  0.62859882     0.24400
C1347       C  0.20929561  0.78829064  0.62319382    -0.23600
C1348       C  0.18524656  0.76929407  0.64999948     0.19300
F1349       F  0.14891116  0.73908370  0.64526297    -0.13600
F1350       F  0.17794425  0.75619493  0.70684508    -0.15900
F1351       F  0.27077742  0.83773491  0.60306761    -0.15900
F1352       F  0.29910351  0.85626139  0.66477817    -0.13600
C1353       C  0.09972324  0.49640416  0.89870050     0.24400
C1354       C  0.10551918  0.47259159  0.87736364    -0.23700
C1355       C  0.11456120  0.44584864  0.89043044     0.19300
C1356       C  0.11918182  0.44408921  0.92401694     0.24400
C1357       C  0.11497135  0.46911116  0.94528222    -0.23600
C1358       C  0.10436567  0.49475572  0.93211927     0.19300
F1359       F  0.09996524  0.51972050  0.95132955    -0.13600
F1360       F  0.09187938  0.52316110  0.88716475    -0.15900
F1361       F  0.12827274  0.41822713  0.93554690    -0.15900
F1362       F  0.11947231  0.42164591  0.87064841    -0.13600
C1363       C  0.08920216  0.56684665  0.67398723     0.24400
C1364       C  0.11005077  0.58492514  0.70207795    -0.23700
C1365       C  0.13498834  0.62498829  0.70229636     0.19300
C1366       C  0.14149694  0.64633356  0.67390600     0.24400
C1367       C  0.12312942  0.62778711  0.64478322    -0.23600
C1368       C  0.09533701  0.58806743  0.64557867     0.19300
F1369       F  0.07679220  0.56885011  0.61818150    -0.13600
F1370       F  0.06562096  0.52806723  0.67321711    -0.15900
F1371       F  0.16784323  0.68459441  0.67448587    -0.15900
F1372       F  0.15635647  0.64284677  0.72902000    -0.13600
C1373       C  0.18146376  0.69717420  0.79897100     0.24400
C1374       C  0.22082210  0.71635725  0.80742236    -0.23700
C1375       C  0.23509479  0.69566911  0.82403336     0.19300
C1376       C  0.21248679  0.65569710  0.82712789     0.24400
C1377       C  0.17520301  0.63584185  0.81406497    -0.23600
C1378       C  0.15868451  0.65699436  0.80245014     0.19300
F1379       F  0.12216253  0.63827048  0.79042667    -0.13600
F1380       F  0.16650494  0.71628169  0.78350390    -0.15900
F1381       F  0.22852469  0.63597331  0.83953178    -0.15900
F1382       F  0.27246196  0.71365060  0.83406627    -0.13600
C1383       C  0.26884567  0.51262357  0.79211070     0.24400
C1384       C  0.25231004  0.53495065  0.80071249    -0.23700
C1385       C  0.27634533  0.57149809  0.81472705     0.19300
C1386       C  0.31641948  0.58757087  0.81551011     0.24400
C1387       C  0.33331025  0.56718827  0.80323006    -0.23600
C1388       C  0.30919064  0.52862734  0.79376216     0.19300
F1389       F  0.32498637  0.50764424  0.78350799    -0.13600
F1390       F  0.24674110  0.47708136  0.77897865    -0.15900
F1391       F  0.33899011  0.62448492  0.82546271    -0.15900
F1392       F  0.26140408  0.59323392  0.82503948    -0.13600
C1393       C  0.27039731  0.46593161  0.41791836     0.24400
C1394       C  0.29839757  0.47581452  0.44214805    -0.23700
C1395       C  0.33768775  0.49272033  0.43281339     0.19300
C1396       C  0.34865215  0.49965073  0.40013188     0.24400
C1397       C  0.32066465  0.48923436  0.37591716    -0.23600
C1398       C  0.28136549  0.47219305  0.38508447     0.19300
F1399       F  0.25356745  0.46252361  0.36230130    -0.13600
F1400       F  0.23239597  0.44984043  0.42592242    -0.15900
F1401       F  0.38670226  0.51602748  0.39216577    -0.15900
F1402       F  0.36592513  0.50357948  0.45537269    -0.13600
C1403       C  0.23747750  0.59132047  0.51415145     0.24400
C1404       C  0.21635171  0.55166537  0.52069126    -0.23700
C1405       C  0.17621482  0.53430016  0.52716167     0.19300
C1406       C  0.15897110  0.55708006  0.53070927     0.24400
C1407       C  0.18151171  0.59723547  0.52722479    -0.23600
C1408       C  0.22035912  0.61367368  0.51765685     0.19300
F1409       F  0.24284790  0.65228023  0.51426852    -0.13600
F1410       F  0.27570232  0.60923735  0.50664147    -0.15900
F1411       F  0.12150732  0.54044027  0.54056283    -0.15900
F1412       F  0.15443255  0.49592026  0.53290355    -0.13600
C1413       C  0.40384798  0.54170126  0.63551905     0.24400
C1414       C  0.36317009  0.52045559  0.63506625    -0.23700
C1415       C  0.34254838  0.50930532  0.66455000     0.19300
C1416       C  0.36191927  0.52364450  0.69384482     0.24400
C1417       C  0.40195531  0.54945695  0.69388552    -0.23600
C1418       C  0.42315731  0.55639839  0.66492246     0.19300
F1419       F  0.46208999  0.58070542  0.66475944    -0.13600
F1420       F  0.42453651  0.55212280  0.60736841    -0.15900
F1421       F  0.34089765  0.51669387  0.72149604    -0.15900
F1422       F  0.30330952  0.48732462  0.66475525    -0.13600
C1423       C  0.18373252  0.44911379  0.68104261     0.24400
C1424       C  0.16521245  0.47067332  0.68336069    -0.23700
C1425       C  0.15828311  0.48535468  0.65508080     0.19300
C1426       C  0.17224516  0.48113436  0.62514762     0.24400
C1427       C  0.19333250  0.46208956  0.62293084    -0.23600
C1428       C  0.19781570  0.44486337  0.65088200     0.19300
F1429       F  0.21946434  0.42778528  0.64962770    -0.13600
F1430       F  0.19143563  0.43547662  0.70833360    -0.15900
F1431       F  0.16860397  0.49908201  0.59877761    -0.15900
F1432       F  0.14044547  0.50626572  0.65685502    -0.13600
C1433       C  0.45008400  0.66517668  0.51647017     0.24400
C1434       C  0.43295024  0.68553505  0.50410179    -0.23700
C1435       C  0.39524406  0.66455277  0.49154832     0.19300
C1436       C  0.37348923  0.62455246  0.49518277     0.24400
C1437       C  0.38863762  0.60511844  0.51214267    -0.23600
C1438       C  0.42768662  0.62524831  0.52122787     0.19300
F1439       F  0.44288318  0.60703077  0.53776234    -0.13600
F1440       F  0.48695605  0.68434076  0.52770205    -0.15900
F1441       F  0.33626776  0.60511866  0.48489049    -0.15900
F1442       F  0.37836522  0.68307112  0.47822582    -0.13600
C1443       C  0.24315819  0.32524592  0.60578704     0.24400
C1444       C  0.22217884  0.29418840  0.58445811    -0.23700
C1445       C  0.22232932  0.30166541  0.55111184     0.19300
C1446       C  0.23982172  0.33966754  0.53978604     0.24400
C1447       C  0.25863403  0.37080606  0.56147648    -0.23600
C1448       C  0.26188747  0.36325990  0.59428744     0.19300
F1449       F  0.28032275  0.39270183  0.61573054    -0.13600
F1450       F  0.24382353  0.31875750  0.63805536    -0.15900
F1451       F  0.23710702  0.34608309  0.50780632    -0.15900
F1452       F  0.20260284  0.27222774  0.52993306    -0.13600
C1453       C  0.90279726  0.66206348  0.93661714     0.24400
C1454       C  0.88235717  0.63015823  0.91597538    -0.23700
C1455       C  0.88031049  0.63644993  0.88271332     0.19300
C1456       C  0.89575555  0.67394914  0.87068292     0.24400
C1457       C  0.91515582  0.70596390  0.89147974    -0.23600
C1458       C  0.91976845  0.69968144  0.92435037     0.19300
F1459       F  0.93806380  0.72987315  0.94511709    -0.13600
F1460       F  0.90511684  0.65672817  0.96889294    -0.15900
F1461       F  0.89069862  0.67894136  0.83886194    -0.15900
F1462       F  0.86085363  0.60611667  0.86230370    -0.13600
C1463       C  0.82323393  0.46746941  0.78674422     0.24400
C1464       C  0.84036152  0.44464724  0.78681165    -0.23700
C1465       C  0.85549488  0.43976076  0.81584790     0.19300
C1466       C  0.85107138  0.45528075  0.84494052     0.24400
C1467       C  0.83049699  0.47498604  0.84533103    -0.23600
C1468       C  0.81822007  0.48245974  0.81578804     0.19300
F1469       F  0.79918102  0.50224312  0.81531381    -0.13600
F1470       F  0.80729376  0.47147709  0.75918701    -0.15900
F1471       F  0.86339998  0.44767001  0.87306627    -0.15900
F1472       F  0.87157333  0.41721906  0.81643896    -0.13600
C1473       C  0.94352989  0.37089659  0.75525606     0.24400
C1474       C  0.93568508  0.38182684  0.72508474    -0.23700
C1475       C  0.96675929  0.40949963  0.70637926     0.19300
C1476       C  0.00452603  0.42784585  0.71841430     0.24400
C1477       C  0.01217346  0.41938311  0.74960778    -0.23600
C1478       C  0.98163530  0.38966692  0.76750684     0.19300
F1479       F  0.98808768  0.38120019  0.79785929    -0.13600
F1480       F  0.91396813  0.34469282  0.77406893    -0.15900
F1481       F  0.03358387  0.45578485  0.70033779    -0.15900
F1482       F  0.96014016  0.42044639  0.67711006    -0.13600
C1483       C  0.78204177  0.33762042  0.96214595     0.24400
C1484       C  0.74395986  0.31560228  0.97453839    -0.23700
C1485       C  0.72624996  0.33498846  0.98779106     0.19300
C1486       C  0.74418298  0.37498409  0.98517431     0.24400
C1487       C  0.77968392  0.39631704  0.96881764    -0.23600
C1488       C  0.79956753  0.37775514  0.95891086     0.19300
F1489       F  0.83396651  0.39778094  0.94303535    -0.13600
F1490       F  0.80046323  0.32003283  0.94963947    -0.15900
F1491       F  0.72524308  0.39268589  0.99596606    -0.15900
F1492       F  0.69022074  0.31495912  0.00097873    -0.13600
C1493       C  0.77596379  0.29213995  0.85983304     0.24400
C1494       C  0.76030677  0.25261937  0.86563874    -0.23700
C1495       C  0.75939083  0.22889538  0.84009914     0.19300
C1496       C  0.77067912  0.24400560  0.80855420     0.24400
C1497       C  0.78269357  0.28276490  0.80255186    -0.23600
C1498       C  0.78662806  0.30691740  0.82858228     0.19300
F1499       F  0.79824404  0.34444607  0.82336669    -0.13600
F1500       F  0.77724159  0.31582613  0.88394484    -0.15900
F1501       F  0.76633264  0.22015014  0.78351902    -0.15900
F1502       F  0.74365247  0.19055260  0.84487733    -0.13600
C1503       C  0.71752507  0.07459690  0.87324043     0.24400
C1504       C  0.72808862  0.05459945  0.89487722    -0.23700
C1505       C  0.71676039  0.05129060  0.92765738     0.19300
C1506       C  0.69907306  0.07130233  0.93928123     0.24400
C1507       C  0.69116034  0.09354575  0.91804731    -0.23600
C1508       C  0.69866707  0.09348087  0.88471672     0.19300
F1509       F  0.69051076  0.11420689  0.86371275    -0.13600
F1510       F  0.72700903  0.07724541  0.84121989    -0.15900
F1511       F  0.69111426  0.07031933  0.97149503    -0.15900
F1512       F  0.72578863  0.03147862  0.94893186    -0.13600
C1513       C  0.63340773  0.19178146  0.69585783     0.24400
C1514       C  0.61034175  0.20541657  0.68272069    -0.23700
C1515       C  0.62842858  0.24066277  0.66630984     0.19300
C1516       C  0.66877575  0.26419168  0.66669393     0.24400
C1517       C  0.69168608  0.25320405  0.68418369    -0.23600
C1518       C  0.67388717  0.21570049  0.69695774     0.19300
F1519       F  0.69499179  0.20381307  0.71362156    -0.13600
F1520       F  0.61649730  0.15668386  0.71027482    -0.15900
F1521       F  0.68527542  0.29911445  0.65208455    -0.15900
F1522       F  0.60686503  0.25364027  0.65211068    -0.13600
C1523       C  0.59198866  0.16185831  0.79287147     0.24400
C1524       C  0.55176075  0.13678683  0.79306761    -0.23700
C1525       C  0.53307069  0.11740439  0.82167047     0.19300
C1526       C  0.55416268  0.12430119  0.85020512     0.24400
C1527       C  0.59416238  0.15129950  0.85042583    -0.23600
C1528       C  0.61318925  0.16868183  0.82121669     0.19300
F1529       F  0.65188230  0.19429908  0.82050247    -0.13600
F1530       F  0.61004339  0.18364877  0.76638718    -0.15900
F1531       F  0.53478134  0.10745735  0.87814048    -0.15900
F1532       F  0.49398707  0.09481342  0.82275974    -0.13600
C1533       C  0.40235123  0.02420736  0.76781607     0.24400
C1534       C  0.39181265  0.03420715  0.73853214    -0.23700
C1535       C  0.35981261  0.00542427  0.72136971     0.19300
C1536       C  0.34077717  0.96681987  0.73218252     0.24400
C1537       C  0.35363993  0.95673143  0.76019620    -0.23600
C1538       C  0.38365315  0.98602631  0.77843650     0.19300
F1539       F  0.39622240  0.97727347  0.80586246    -0.13600
F1540       F  0.43235319  0.05140989  0.78540192    -0.15900
F1541       F  0.31199481  0.93898932  0.71396154    -0.15900
F1542       F  0.34911204  0.01403673  0.69289036    -0.13600
C1543       C  0.55667104  0.33496273  0.66820934     0.24400
C1544       C  0.54032829  0.35478776  0.68281975    -0.23700
C1545       C  0.50272315  0.33345670  0.69606829     0.19300
C1546       C  0.48432016  0.29315266  0.69899567     0.24400
C1547       C  0.50292007  0.27375981  0.68764509    -0.23600
C1548       C  0.53774224  0.29481208  0.66993741     0.19300
F1549       F  0.55528999  0.27667164  0.65687285    -0.13600
F1550       F  0.59246749  0.35462582  0.65464790    -0.15900
F1551       F  0.45072355  0.27392068  0.71609918    -0.15900
F1552       F  0.48563312  0.35202059  0.70926167    -0.13600
C1553       C  0.74968348  0.56334246  0.83977765     0.24400
C1554       C  0.72646910  0.54017676  0.86556973    -0.23700
C1555       C  0.68640165  0.51661763  0.86101863     0.19300
C1556       C  0.67056030  0.51220180  0.83029283     0.24400
C1557       C  0.69441240  0.53160625  0.80367061    -0.23600
C1558       C  0.73360337  0.55903428  0.80873319     0.19300
F1559       F  0.75690143  0.57856335  0.78320408    -0.13600
F1560       F  0.78839240  0.58653165  0.84366813    -0.15900
F1561       F  0.63237246  0.48639955  0.82607834    -0.15900
F1562       F  0.66327094  0.49424625  0.88560051    -0.13600
C1563       C  0.70559491  0.42960841  0.66568180     0.24400
C1564       C  0.71979885  0.46543265  0.68131161    -0.23700
C1565       C  0.75945296  0.48711463  0.68871756     0.19300
C1566       C  0.78278520  0.47056711  0.68505501     0.24400
C1567       C  0.76645599  0.43217975  0.67458018    -0.23600
C1568       C  0.72853008  0.41289892  0.66287529     0.19300
F1569       F  0.71236954  0.37616734  0.65199839    -0.13600
F1570       F  0.66814344  0.40898127  0.65608504    -0.15900
F1571       F  0.82007216  0.49033833  0.69522620    -0.15900
F1572       F  0.77451151  0.52224089  0.70288617    -0.13600
C1573       C  0.56670070  0.56062306  0.76282414     0.24400
C1574       C  0.59079609  0.57317767  0.73522264    -0.23700
C1575       C  0.59949720  0.60834887  0.72077913     0.19300
C1576       C  0.58124261  0.62844698  0.73208991     0.24400
C1577       C  0.55449376  0.61366112  0.75812617    -0.23600
C1578       C  0.54909481  0.58059418  0.77419483     0.19300
F1579       F  0.52477772  0.56622109  0.80016765    -0.13600
F1580       F  0.55874039  0.52766791  0.77814765    -0.15900
F1581       F  0.58739034  0.66043593  0.71611389    -0.15900
F1582       F  0.62317541  0.62163015  0.69439041    -0.13600
C1583       C  0.43959458  0.18124604  0.86514759     0.24400
C1584       C  0.42576581  0.20672388  0.86908721    -0.23700
C1585       C  0.41232159  0.21726480  0.84184556     0.19300
C1586       C  0.41665870  0.20575006  0.81065663     0.24400
C1587       C  0.43395116  0.18326429  0.80672158    -0.23600
C1588       C  0.44355482  0.16949541  0.83415725     0.19300
F1589       F  0.46007010  0.14751447  0.83073644    -0.13600
F1590       F  0.45303078  0.17097321  0.89105217    -0.15900
F1591       F  0.40731881  0.21935768  0.78425686    -0.15900
F1592       F  0.39952810  0.24243841  0.84507631    -0.13600
C1593       C  0.51729099  0.41263653  0.84943906     0.24400
C1594       C  0.50286719  0.37265031  0.84999137    -0.23700
C1595       C  0.50183994  0.35378051  0.82091550     0.19300
C1596       C  0.51686414  0.37472410  0.79233939     0.24400
C1597       C  0.53282495  0.41474603  0.79211000    -0.23600
C1598       C  0.53256892  0.43354748  0.82072365     0.19300
F1599       F  0.55009030  0.47247388  0.82153981    -0.13600
F1600       F  0.51994065  0.43209927  0.87721717    -0.15900
F1601       F  0.51997710  0.35647419  0.76580682    -0.15900
F1602       F  0.48851602  0.31538489  0.82047412    -0.13600
C1603       C  0.49903327  0.18816680  0.96727267     0.24400
C1604       C  0.51322322  0.22583089  0.97908027    -0.23700
C1605       C  0.55041176  0.24553728  0.99270360     0.19300
C1606       C  0.57498022  0.23066092  0.99005953     0.24400
C1607       C  0.56275167  0.19565037  0.97402993    -0.23600
C1608       C  0.52394914  0.17335079  0.96428840     0.19300
F1609       F  0.51156856  0.13949106  0.94848737    -0.13600
F1610       F  0.46265817  0.16759661  0.95519931    -0.15900
F1611       F  0.61220915  0.25240059  0.00004930    -0.15900
F1612       F  0.56426613  0.28095272  0.00589153    -0.13600
C1613       C  0.64438856  0.41521457  0.98558528     0.24400
C1614       C  0.66222739  0.45231855  0.97214043    -0.23700
C1615       C  0.63852845  0.46676282  0.96196660     0.19300
C1616       C  0.59806610  0.44239661  0.96064381     0.24400
C1617       C  0.58091599  0.40383728  0.97049952    -0.23600
C1618       C  0.60418298  0.39134213  0.98489251     0.19300
F1619       F  0.58810404  0.35466822  0.99574014    -0.13600
F1620       F  0.66598502  0.40108020  0.99755233    -0.15900
F1621       F  0.57623368  0.45519024  0.94653669    -0.15900
F1622       F  0.65461064  0.50307554  0.95013402    -0.13600
C1623       C  0.33768767  0.28238803  0.88977892     0.24400
C1624       C  0.34320427  0.27791224  0.92288384    -0.23700
C1625       C  0.31038936  0.25824748  0.94314584     0.19300
C1626       C  0.27298074  0.24180981  0.93026940     0.24400
C1627       C  0.26759067  0.24298760  0.89670245    -0.23600
C1628       C  0.30019799  0.26433389  0.87668921     0.19300
F1629       F  0.29571586  0.26671955  0.84427653    -0.13600
F1630       F  0.36859840  0.30171510  0.86960825    -0.15900
F1631       F  0.24195978  0.22246606  0.95028531    -0.15900
F1632       F  0.31453491  0.25387128  0.97530062    -0.13600
C1633       C  0.81411868  0.53475101  0.09695504     0.24400
C1634       C  0.83586883  0.51770389  0.10579704    -0.23700
C1635       C  0.85384331  0.50777736  0.08150488     0.19300
C1636       C  0.84987869  0.51442139  0.04884939     0.24400
C1637       C  0.82698047  0.53026142  0.03987576    -0.23600
C1638       C  0.80942113  0.54062958  0.06430237     0.19300
F1639       F  0.78766544  0.55645672  0.05664304    -0.13600
F1640       F  0.79611537  0.54447858  0.11988552    -0.15900
F1641       F  0.86743185  0.50404649  0.02600799    -0.15900
F1642       F  0.87552298  0.49194049  0.08938045    -0.13600
C1643       C  0.96960766  0.58954546  0.20728025     0.24400
C1644       C  0.93701698  0.57337892  0.22792518    -0.23700
C1645       C  0.94247845  0.57771914  0.26172344     0.19300
C1646       C  0.97984199  0.59534754  0.27474147     0.24400
C1647       C  0.01236400  0.61030176  0.25415579    -0.23600
C1648       C  0.00704578  0.60854922  0.22030875     0.19300
F1649       F  0.03802798  0.62280496  0.19988824    -0.13600
F1650       F  0.96512724  0.58597274  0.17453104    -0.15900
F1651       F  0.98428458  0.59689785  0.30749024    -0.15900
F1652       F  0.91152820  0.56235201  0.28218929    -0.13600
C1653       C  0.44981732  0.11147129  0.55777031     0.24400
C1654       C  0.44220262  0.13915775  0.54441719    -0.23700
C1655       C  0.43641221  0.16307018  0.56569804     0.19300
C1656       C  0.43912449  0.16020546  0.59925525     0.24400
C1657       C  0.44777203  0.13326967  0.61267819    -0.23600
C1658       C  0.45264993  0.10864322  0.59149083     0.19300
F1659       F  0.46037871  0.08191565  0.60328374    -0.13600
F1660       F  0.45486258  0.08717311  0.53823052    -0.15900
F1661       F  0.43478731  0.18522375  0.61845128    -0.15900
F1662       F  0.42991327  0.19071316  0.55411345    -0.13600
C1663       C  0.31218256  0.08352224  0.44255472     0.24400
C1664       C  0.34233400  0.08369407  0.42484052    -0.23700
C1665       C  0.33370448  0.06437134  0.39474193     0.19300
C1666       C  0.29609721  0.04765391  0.38160838     0.24400
C1667       C  0.26678894  0.05013041  0.39846746    -0.23600
C1668       C  0.27492733  0.06689828  0.42955831     0.19300
F1669       F  0.24689171  0.06846306  0.44689991    -0.13600
F1670       F  0.31940480  0.10141486  0.47187278    -0.15900
F1671       F  0.28919697  0.03186878  0.35145320    -0.15900
F1672       F  0.36236770  0.06460213  0.37687861    -0.13600
C1673       C  0.46909465  0.36883070  0.08676103     0.24400
C1674       C  0.45190429  0.34075261  0.11112687    -0.23700
C1675       C  0.42890173  0.30171765  0.10202176     0.19300
C1676       C  0.42449452  0.29099374  0.06927660     0.24400
C1677       C  0.44235508  0.31904639  0.04501636    -0.23600
C1678       C  0.46419292  0.35813775  0.05405581     0.19300
F1679       F  0.48228869  0.38609013  0.03128550    -0.13600
F1680       F  0.49094551  0.40670538  0.09454218    -0.15900
F1681       F  0.40272661  0.25317149  0.06131853    -0.15900
F1682       F  0.41187354  0.27360509  0.12479619    -0.13600
C1683       C  0.64143406  0.47023634  0.19043691     0.24400
C1684       C  0.61982205  0.43318521  0.17657699    -0.23700
C1685       C  0.63974769  0.41717796  0.16123655     0.19300
C1686       C  0.68015389  0.43587301  0.16291992     0.24400
C1687       C  0.70104224  0.46978780  0.18109596    -0.23600
C1688       C  0.68173879  0.48786751  0.19356242     0.19300
F1689       F  0.70126775  0.52047619  0.21153197    -0.13600
F1690       F  0.62325780  0.48739021  0.20429197    -0.15900
F1691       F  0.69880492  0.41926266  0.14914766    -0.15900
F1692       F  0.61996994  0.38232030  0.14645221    -0.13600
C1693       C  0.47523703  0.30171411  0.33280418     0.24400
C1694       C  0.45809192  0.28231430  0.30370870    -0.23700
C1695       C  0.43314710  0.24206610  0.30427303     0.19300
C1696       C  0.42792893  0.22139616  0.33296909     0.24400
C1697       C  0.44677531  0.24074116  0.36150358    -0.23600
C1698       C  0.46953745  0.28105265  0.36145462     0.19300
F1699       F  0.48950558  0.30013664  0.38837844    -0.13600
F1700       F  0.49908591  0.34053241  0.33317689    -0.15900
F1701       F  0.40674323  0.18236122  0.33240277    -0.15900
F1702       F  0.41662554  0.22239831  0.27649519    -0.13600
C1703       C  0.40039907  0.39369332  0.26889088     0.24400
C1704       C  0.40048833  0.38598877  0.23557988    -0.23700
C1705       C  0.38176463  0.39799249  0.21391215     0.19300
C1706       C  0.36422772  0.41834472  0.22516592     0.24400
C1707       C  0.36620025  0.42820040  0.25820517    -0.23600
C1708       C  0.38396738  0.41517055  0.28005474     0.19300
F1709       F  0.38663308  0.42442420  0.31207282    -0.13600
F1710       F  0.41894087  0.38311621  0.29023605    -0.15900
F1711       F  0.34819491  0.43120820  0.20332797    -0.15900
F1712       F  0.38202332  0.39147055  0.18153711    -0.13600
C1713       C  0.69744110  0.62918641  0.38426444     0.24400
C1714       C  0.68469392  0.62133234  0.41668888    -0.23700
C1715       C  0.68603741  0.65092106  0.43583264     0.19300
C1716       C  0.70322619  0.68866526  0.42346469     0.24400
C1717       C  0.71917203  0.69703378  0.39187826    -0.23600
C1718       C  0.71456924  0.66661935  0.37200187     0.19300
F1719       F  0.72958470  0.67380428  0.34142988    -0.13600
F1720       F  0.69565741  0.60088462  0.36510018    -0.15900
F1721       F  0.70799382  0.71761233  0.44341261    -0.15900
F1722       F  0.67406421  0.64407092  0.46728894    -0.13600
C1723       C  0.60932930  0.49758053  0.55444844     0.24400
C1724       C  0.64634406  0.52353035  0.54130063    -0.23700
C1725       C  0.67616720  0.54760549  0.56268289     0.19300
C1726       C  0.66947263  0.54513167  0.59624986     0.24400
C1727       C  0.63279910  0.51831184  0.60934171    -0.23600
C1728       C  0.60272799  0.49507753  0.58795000     0.19300
F1729       F  0.56722162  0.46846300  0.59940677    -0.13600
F1730       F  0.57939998  0.47334774  0.53508572    -0.15900
F1731       F  0.69928724  0.56884713  0.61593569    -0.15900
F1732       F  0.71206464  0.57325511  0.55129671    -0.13600
C1733       C  0.79049523  0.50655904  0.33119149     0.24400
C1734       C  0.78548683  0.52130126  0.30194385    -0.23700
C1735       C  0.76942770  0.54524061  0.30283783     0.19300
C1736       C  0.75482333  0.55076328  0.33200657     0.24400
C1737       C  0.75696344  0.53329376  0.36065524    -0.23600
C1738       C  0.77619462  0.51242552  0.36026596     0.19300
F1739       F  0.77660386  0.49341458  0.38717306    -0.13600
F1740       F  0.80665444  0.48407728  0.33133560    -0.15900
F1741       F  0.73517591  0.56990281  0.33165341    -0.15900
F1742       F  0.76409526  0.55993458  0.27504451    -0.13600
C1743       C  0.61579513  0.47797269  0.31930747     0.24400
C1744       C  0.59274674  0.47662814  0.34550286    -0.23700
C1745       C  0.55421244  0.46674729  0.34010191     0.19300
C1746       C  0.53769843  0.45372776  0.30927592     0.24400
C1747       C  0.55985498  0.45067514  0.28410054    -0.23600
C1748       C  0.59954510  0.46508589  0.28892051     0.19300
F1749       F  0.62177605  0.46269437  0.26510127    -0.13600
F1750       F  0.65347761  0.48877240  0.32377404    -0.15900
F1751       F  0.49934288  0.44005212  0.30514413    -0.15900
F1752       F  0.53171089  0.46593946  0.36521470    -0.13600
C1753       C  0.52708227  0.36476287  0.45669569     0.24400
C1754       C  0.56681398  0.38281446  0.46386368    -0.23700
C1755       C  0.58082177  0.36084144  0.47852665     0.19300
C1756       C  0.55727316  0.32110870  0.48167986     0.24400
C1757       C  0.51909178  0.30244480  0.47073809    -0.23600
C1758       C  0.50327501  0.32466884  0.46029565     0.19300
F1759       F  0.46592066  0.30711422  0.45031526    -0.13600
F1760       F  0.51224048  0.38500381  0.44306090    -0.15900
F1761       F  0.57293779  0.30041351  0.49248457    -0.15900
F1762       F  0.61839844  0.37735777  0.48736805    -0.13600
C1763       C  0.81293174  0.29479979  0.55904730     0.24400
C1764       C  0.83233600  0.32609437  0.53765536    -0.23700
C1765       C  0.85565661  0.36327374  0.55096449     0.19300
C1766       C  0.85778483  0.36915211  0.58462605     0.24400
C1767       C  0.83678509  0.33805854  0.60599140    -0.23600
C1768       C  0.81514790  0.30063632  0.59268424     0.19300
F1769       F  0.79478696  0.26940838  0.61206090    -0.13600
F1770       F  0.79026633  0.25848443  0.54753983    -0.15900
F1771       F  0.87986460  0.40557299  0.59610913    -0.15900
F1772       F  0.87594103  0.39440345  0.53144990    -0.13600
C1773       C  0.86293386  0.44526587  0.30924187     0.24400
C1774       C  0.84938049  0.42136082  0.28172901    -0.23700
C1775       C  0.83459808  0.38167934  0.28529564     0.19300
C1776       C  0.83026894  0.36566504  0.31617368     0.24400
C1777       C  0.84032512  0.38908808  0.34386764    -0.23600
C1778       C  0.85812333  0.42914097  0.34027404     0.19300
F1779       F  0.86760755  0.45215273  0.36687027    -0.13600
F1780       F  0.87641843  0.48352939  0.30639704    -0.15900
F1781       F  0.81318277  0.32688973  0.31924746    -0.15900
F1782       F  0.82080178  0.35798752  0.25913901    -0.13600
C1783       C  0.60524473  0.17755129  0.45747873     0.24400
C1784       C  0.58519454  0.19490238  0.47003956    -0.23700
C1785       C  0.60611298  0.22957759  0.48758188     0.19300
C1786       C  0.64660467  0.25001934  0.48730901     0.24400
C1787       C  0.66674003  0.23493902  0.47115954    -0.23600
C1788       C  0.64589917  0.19745302  0.45823223     0.19300
F1789       F  0.66497712  0.18207317  0.44293910    -0.13600
F1790       F  0.58601250  0.14378498  0.44101178    -0.15900
F1791       F  0.66601082  0.28597892  0.50015946    -0.15900
F1792       F  0.58723050  0.24547178  0.50224051    -0.13600
C1793       C  0.74368402  0.40178132  0.48278469     0.24400
C1794       C  0.77854545  0.41457311  0.46540275    -0.23700
C1795       C  0.79970995  0.45329533  0.45555473     0.19300
C1796       C  0.78343073  0.47686334  0.45895293     0.24400
C1797       C  0.74570682  0.46167894  0.47151451    -0.23600
C1798       C  0.72735888  0.42505605  0.48554886     0.19300
F1799       F  0.69177932  0.41039847  0.49913794    -0.13600
F1800       F  0.72339614  0.36520341  0.49426757    -0.15900
F1801       F  0.80275995  0.51322396  0.44696566    -0.15900
F1802       F  0.83377634  0.46694722  0.43934209    -0.13600
C1803       C  0.86528718  0.25225454  0.38519770     0.24400
C1804       C  0.88020732  0.27942604  0.41054504    -0.23700
C1805       C  0.91610402  0.28869956  0.42407424     0.19300
C1806       C  0.93491414  0.26873473  0.41404396     0.24400
C1807       C  0.91788761  0.23925729  0.39050357    -0.23600
C1808       C  0.88360135  0.23230557  0.37551586     0.19300
F1809       F  0.86695539  0.20502481  0.35200752    -0.13600
F1810       F  0.83174328  0.24382811  0.37049297    -0.15900
F1811       F  0.96804579  0.27614417  0.42900659    -0.15900
F1812       F  0.93144874  0.31485424  0.44849260    -0.13600
C1813       C  0.67879058  0.16190566  0.06689889     0.24400
C1814       C  0.65130919  0.15025979  0.04212101    -0.23700
C1815       C  0.61167905  0.13209359  0.05040761     0.19300
C1816       C  0.59984418  0.12663228  0.08283746     0.24400
C1817       C  0.62725860  0.13858100  0.10774639    -0.23600
C1818       C  0.66692081  0.15582122  0.09943200     0.19300
F1819       F  0.69451523  0.16796245  0.12273517    -0.13600
F1820       F  0.71708301  0.17887218  0.05965135    -0.15900
F1821       F  0.56147350  0.10963187  0.08976354    -0.15900
F1822       F  0.58417200  0.12069993  0.02712123    -0.13600
C1823       C  0.54536243  0.23838581  0.15616106     0.24400
C1824       C  0.52752512  0.20277152  0.17227185    -0.23700
C1825       C  0.49080368  0.18910645  0.18653539     0.19300
C1826       C  0.47542469  0.21340488  0.18932287     0.24400
C1827       C  0.49629729  0.25115471  0.17729274    -0.23600
C1828       C  0.52989752  0.26246030  0.15873117     0.19300
F1829       F  0.54999927  0.29852966  0.14614793    -0.13600
F1830       F  0.57967782  0.25134485  0.14054992    -0.15900
F1831       F  0.44294232  0.20191155  0.20741088    -0.15900
F1832       F  0.47233506  0.15437746  0.20156602    -0.13600
C1833       C  0.65622565  0.20095469  0.33114735     0.24400
C1834       C  0.67264658  0.19292734  0.30408377    -0.23700
C1835       C  0.70913733  0.19603785  0.30744118     0.19300
C1836       C  0.73050172  0.21119769  0.33587626     0.24400
C1837       C  0.71546248  0.22267473  0.36138794    -0.23600
C1838       C  0.67762475  0.21590031  0.35945001     0.19300
F1839       F  0.66271036  0.22717801  0.38390346    -0.13600
F1840       F  0.62052312  0.19687529  0.32966736    -0.15900
F1841       F  0.76698944  0.21751868  0.33738213    -0.15900
F1842       F  0.72553252  0.18717815  0.28248319    -0.13600
C1843       C  0.48649680  0.12730815  0.29170224     0.24400
C1844       C  0.51524815  0.11800691  0.28566284    -0.23700
C1845       C  0.53222794  0.11010750  0.31204656     0.19300
C1846       C  0.52298736  0.11483430  0.34403214     0.24400
C1847       C  0.49604126  0.12660175  0.34982678    -0.23600
C1848       C  0.47674848  0.13126865  0.32356731     0.19300
F1849       F  0.45116745  0.14332961  0.32875082    -0.13600
F1850       F  0.47060033  0.13623412  0.26671967    -0.15900
F1851       F  0.54245813  0.11089444  0.36915285    -0.15900
F1852       F  0.56104297  0.10238948  0.30680849    -0.13600
C1853       C  0.74635621  0.29036463  0.18723297     0.24400
C1854       C  0.70674948  0.27372953  0.18064667    -0.23700
C1855       C  0.69321555  0.29658943  0.16731727     0.19300
C1856       C  0.71777798  0.33623443  0.16428320     0.24400
C1857       C  0.75635684  0.35387613  0.17475121    -0.23600
C1858       C  0.77121004  0.33030383  0.18398082     0.19300
F1859       F  0.80862030  0.34622022  0.19337063    -0.13600
F1860       F  0.76002133  0.26879171  0.20027464    -0.15900
F1861       F  0.70291000  0.35768665  0.15358668    -0.15900
F1862       F  0.65522693  0.28089761  0.15988341    -0.13600
C1863       C  0.54938526  0.96905210  0.21929855     0.24400
C1864       C  0.54920385  0.96284345  0.25281972    -0.23700
C1865       C  0.56956904  0.99450212  0.27367259     0.19300
C1866       C  0.58821226  0.03206408  0.26132821     0.24400
C1867       C  0.58531360  0.03838910  0.22815069    -0.23600
C1868       C  0.56679771  0.00654519  0.20708464     0.19300
F1869       F  0.56401630  0.01174996  0.17484775    -0.13600
F1870       F  0.52977674  0.93884622  0.19876809    -0.15900
F1871       F  0.60613795  0.06218465  0.28221021    -0.15900
F1872       F  0.56985400  0.98902695  0.30618131    -0.13600
loop_ 
_geom_bond_atom_site_label_1 
_geom_bond_atom_site_label_2 
_geom_bond_distance 
_geom_bond_site_symmetry_2 
_ccdc_geom_bond_type 
O1           C16   1.261       .  A
O1           Al9   1.916       .  S
C2           O12   1.269       .  A
C2            O3   1.264       .  A
C2         C1844   1.469       .  S
O3           Al5   1.911       .  S
O4            C6   1.259       .  A
O4           Al5   1.885       .  S
Al5          O13   1.893       .  S
Al5          O15   1.889       .  S
Al5          O14   1.766       .  S
C6           O19   1.260       .  A
C6         C1834   1.479       .  S
O7           C17   1.260       .  A
O7           Al9   1.911       .  S
O8           C21   1.272       .  A
O8          Al18   1.909       .  S
Al9          O22   1.906       .  S
Al9          O19   1.898       .  S
Al9          O14   1.781       .  S
O10          C17   1.260       .  A
O10         Al18   1.915       .  S
O11          C20   1.263       .  A
O11         Al18   1.946       .  S
O12         Al18   1.926       .  S
O13          C20   1.257       .  A
O14         Al18   1.781       .  S
O15          C16   1.259       .  A
C16        C1854   1.472       .  S
C17        C1867   1.478       .  S
C20        C1824   1.480       .  S
C21          O22   1.266       .  A
C21        C1817   1.478       .  S
O23          C38   1.255       .  A
O23         Al31   1.868       .  S
C24          O34   1.259       .  A
C24          O25   1.269       .  A
C24        C1837   1.459       .  S
O25         Al27   1.948       .  S
O26          C28   1.256       .  A
O26         Al27   1.866       .  S
Al27         O35   1.909       .  S
Al27         O37   1.935       .  S
Al27         O36   1.785       .  S
C28          O41   1.270       .  A
C28        C1804   1.491       .  S
O29          C39   1.255       .  A
O29         Al31   1.897       .  S
O30          C43   1.258       .  A
O30         Al40   1.860       .  S
Al31         O44   1.979       .  S
Al31         O41   1.966       .  S
Al31         O36   1.791       .  S
O32          C39   1.261       .  A
O32         Al40   1.921       .  S
O33          C42   1.260       .  A
O33         Al40   1.917       .  S
O34         Al40   1.870       .  S
O35          C42   1.258       .  A
O36         Al40   1.771       .  S
O37          C38   1.268       .  A
C38        C1764   1.489       .  S
C39        C1777   1.468       .  S
C42        C1787   1.473       .  S
C43          O44   1.276       .  A
C43        C1794   1.486       .  S
O45          C60   1.254       .  A
O45         Al53   1.853       .  S
C46          O56   1.257       .  A
C46          O47   1.270       .  A
C46        C1737   1.462       .  S
O47         Al49   1.953       .  S
O48          C50   1.257       .  A
O48         Al49   1.884       .  S
Al49         O57   1.921       .  S
Al49         O59   1.946       .  S
Al49         O58   1.786       .  S
C50          O63   1.265       .  A
C50        C1714   1.480       .  S
O51          C61   1.254       .  A
O51         Al53   1.893       .  S
O52          C65   1.260       .  A
O52         Al62   1.870       .  S
Al53         O66   1.965       .  S
Al53         O63   1.944       .  S
Al53         O58   1.793       .  S
O54          C61   1.261       .  A
O54         Al62   1.908       .  S
O55          C64   1.259       .  A
O55         Al62   1.910       .  S
O56         Al62   1.867       .  S
O57          C64   1.261       .  A
O58         Al62   1.767       .  S
O59          C60   1.271       .  A
C60        C1724   1.488       .  S
C61        C1744   1.464       .  S
C64        C1797   1.476       .  S
C65          O66   1.273       .  A
C65        C1754   1.486       .  S
O67          C82   1.263       .  A
O67         Al75   1.922       .  S
C68          O78   1.269       .  A
C68          O69   1.266       .  A
C68        C1747   1.468       .  S
O69         Al71   1.895       .  S
O70          C72   1.259       .  A
O70         Al71   1.892       .  S
Al71         O79   1.906       .  S
Al71         O81   1.886       .  S
Al71         O80   1.768       .  S
C72          O85   1.259       .  A
C72        C1694   1.477       .  S
O73          C83   1.262       .  A
O73         Al75   1.929       .  S
O74          C87   1.269       .  A
O74         Al84   1.900       .  S
Al75         O88   1.917       .  S
Al75         O85   1.905       .  S
Al75         O80   1.786       .  S
O76          C83   1.258       .  A
O76         Al84   1.913       .  S
O77          C86   1.258       .  A
O77         Al84   1.926       .  S
O78         Al84   1.921       .  S
O79          C86   1.258       .  A
O80         Al84   1.789       .  S
O81          C82   1.258       .  A
C82        C1827   1.472       .  S
C83        C1704   1.480       .  S
C86        C1684   1.483       .  S
C87          O88   1.268       .  A
C87        C1674   1.478       .  S
O89         C104   1.256       .  A
O89         Al97   1.875       .  S
C90         O100   1.262       .  A
C90          O91   1.274       .  A
C90        C1697   1.464       .  S
O91         Al93   1.956       .  S
O92          C94   1.255       .  A
O92         Al93   1.872       .  S
Al93        O101   1.912       .  S
Al93        O103   1.929       .  S
Al93        O102   1.787       .  S
C94         O107   1.268       .  A
C94        C1664   1.486       .  S
O95         C105   1.253       .  A
O95         Al97   1.901       .  S
O96         C109   1.260       .  A
O96        Al106   1.863       .  S
Al97        O110   1.985       .  S
Al97        O107   1.952       .  S
Al97        O102   1.789       .  S
O98         C105   1.257       .  A
O98        Al106   1.920       .  S
O99         C108   1.256       .  A
O99        Al106   1.905       .  S
O100       Al106   1.874       .  S
O101        C108   1.256       .  A
O102       Al106   1.774       .  S
O103        C104   1.268       .  A
C104       C1654   1.488       .  S
C105       C1847   1.469       .  S
C108       C1757   1.471       .  S
C109        O110   1.279       .  A
C109       C1784   1.484       .  S
O111        C126   1.263       .  A
O111       Al119   1.920       .  S
C112        O122   1.266       .  A
C112        O113   1.262       .  A
C112       C1774   1.468       .  S
O113       Al115   1.904       .  S
O114        C116   1.260       .  A
O114       Al115   1.891       .  S
Al115       O123   1.890       .  S
Al115       O125   1.901       .  S
Al115       O124   1.766       .  S
C116        O129   1.260       .  A
C116       C1734   1.475       .  S
O117        C127   1.262       .  A
O117       Al119   1.910       .  S
O118        C131   1.267       .  A
O118       Al128   1.907       .  S
Al119       O132   1.905       .  S
Al119       O129   1.908       .  S
Al119       O124   1.781       .  S
O120        C127   1.263       .  A
O120       Al128   1.926       .  S
O121        C130   1.265       .  A
O121       Al128   1.944       .  S
O122       Al128   1.922       .  S
O123        C130   1.259       .  A
O124       Al128   1.784       .  S
O125        C126   1.260       .  A
C126       C1687   1.472       .  S
C127       C1644   1.478       .  S
C130       C1857   1.483       .  S
C131        O132   1.264       .  A
C131       C1634   1.473       .  S
O133        C148   1.264       .  A
O133       Al141   1.927       .  S
C134        O144   1.266       .  A
C134        O135   1.264       .  A
C134       C1584   1.467       .  S
O135       Al137   1.907       .  S
O136        C138   1.259       .  A
O136       Al137   1.888       .  S
Al137       O145   1.888       .  S
Al137       O147   1.892       .  S
Al137       O146   1.767       .  S
C138        O151   1.259       .  A
C138       C1594   1.476       .  S
O139        C149   1.263       .  A
O139       Al141   1.921       .  S
O140        C153   1.269       .  A
O140       Al150   1.907   1_554  S
Al141       O154   1.909       .  S
Al141       O151   1.902       .  S
Al141       O146   1.784       .  S
O142        C149   1.262       .  A
O142       Al150   1.925       .  S
O143        C152   1.264       .  A
O143       Al150   1.952       .  S
O144       Al150   1.918       .  S
O145        C152   1.256       .  A
O146       Al150   1.789       .  S
O147        C148   1.259       .  A
C148       C1617   1.477       .  S
C149       C1624   1.488       .  S
C152       C1604   1.484       .  S
C153        O154   1.266   1_554  A
C153       C1677   1.476       .  S
O155        C170   1.254       .  A
O155       Al163   1.856       .  S
C156        O166   1.257       .  A
C156        O157   1.272       .  A
C156       C1597   1.461       .  S
O157       Al159   1.955       .  S
O158        C160   1.257       .  A
O158       Al159   1.876       .  S
Al159       O167   1.920       .  S
Al159       O169   1.940       .  S
Al159       O168   1.783       .  S
C160        O173   1.267       .  A
C160       C1574   1.491       .  S
O161        C171   1.253       .  A
O161       Al163   1.894       .  S
O162        C175   1.260       .  A
O162       Al172   1.862       .  S
Al163       O176   1.976       .  S
Al163       O173   1.956       .  S
Al163       O168   1.795       .  S
O164        C171   1.260       .  A
O164       Al172   1.913       .  S
O165        C174   1.259       .  A
O165       Al172   1.916       .  S
O166       Al172   1.866       .  S
O167        C174   1.260       .  A
O168       Al172   1.771       .  S
O169        C170   1.270       .  A
C170       C1727   1.484       .  S
C171       C1557   1.465       .  S
C174       C1544   1.480       .  S
C175        O176   1.276       .  A
C175       C1564   1.485       .  S
O177        C192   1.254       .  A
O177       Al185   1.856       .  S
C178        O188   1.258       .  A
C178        O179   1.270       .  A
C178       C1524   1.454       .  S
O179       Al181   1.948       .  S
O180        C182   1.256       .  A
O180       Al181   1.876       .  S
Al181       O189   1.916       .  S
Al181       O191   1.943       .  S
Al181       O190   1.786       .  S
C182        O195   1.269       .  A
C182       C1534   1.489       .  S
O183        C193   1.253       .  A
O183       Al185   1.895       .  S
O184        C197   1.259       .  A
O184       Al194   1.862       .  S
Al185       O198   1.986       .  S
Al185       O195   1.963       .  S
Al185       O190   1.788       .  S
O186        C193   1.260       .  A
O186       Al194   1.921       .  S
O187        C196   1.260       .  A
O187       Al194   1.920       .  S
O188       Al194   1.865       .  S
O189        C196   1.259       .  A
O190       Al194   1.769       .  S
O191        C192   1.269       .  A
C192       C1657   1.488       .  S
C193       C1587   1.466       .  S
C196       C1514   1.477       .  S
C197        O198   1.278       .  A
C197       C1547   1.487       .  S
O199        C214   1.262       .  A
O199       Al207   1.917       .  S
C200        O210   1.270       .  A
C200        O201   1.263       .  A
C200       C1494   1.473       .  S
O201       Al203   1.893       .  S
O202        C204   1.259       .  A
O202       Al203   1.884       .  S
Al203       O211   1.899       .  S
Al203       O213   1.892       .  S
Al203       O212   1.765       .  S
C204        O217   1.257       .  A
C204       C1527   1.466       .  S
O205        C215   1.258       .  A
O205       Al207   1.904       .  S
O206        C219   1.270   1_556  A
O206       Al216   1.913       .  S
Al207       O220   1.900       .  S
Al207       O217   1.887       .  S
Al207       O212   1.785       .  S
O208        C215   1.262       .  A
O208       Al216   1.924       .  S
O209        C218   1.264       .  A
O209       Al216   1.941       .  S
O210       Al216   1.933       .  S
O211        C218   1.260       .  A
O212       Al216   1.785       .  S
O213        C214   1.259       .  A
C214       C1607   1.472       .  S
C215       C1507   1.471       .  S
C218       C1484   1.486       .  S
C219        O220   1.264   1_554  A
C219       C1814   1.473       .  S
O221        C236   1.258       .  A
O221       Al229   1.875       .  S
C222        O232   1.259       .  A
C222        O223   1.271       .  A
C222       C1464   1.465       .  S
O223       Al225   1.951       .  S
O224        C226   1.256       .  A
O224       Al225   1.879       .  S
Al225       O233   1.915       .  S
Al225       O235   1.931       .  S
Al225       O234   1.792       .  S
C226        O239   1.265       .  A
C226       C1474   1.484       .  S
O227        C237   1.254       .  A
O227       Al229   1.900       .  S
O228        C241   1.261       .  A
O228       Al238   1.879       .  S
Al229       O242   1.971       .  S
Al229       O239   1.942       .  S
Al229       O234   1.794       .  S
O230        C237   1.258       .  A
O230       Al238   1.910       .  S
O231        C240   1.255       .  A
O231       Al238   1.898       .  S
O232       Al238   1.870       .  S
O233        C240   1.257       .  A
O234       Al238   1.775       .  S
O235        C236   1.268       .  A
C236       C1767   1.492       .  S
C237       C1497   1.468       .  S
C240       C1567   1.472       .  S
C241        O242   1.275       .  A
C241       C1517   1.487       .  S
O243        C258   1.265       .  A
O243       Al251   1.927       .  S
C244        O254   1.266       .  A
C244        O245   1.263       .  A
C244       C1554   1.468       .  S
O245       Al247   1.894       .  S
O246        C248   1.259       .  A
O246       Al247   1.894       .  S
Al247       O255   1.902       .  S
Al247       O257   1.898       .  S
Al247       O256   1.764       .  S
C248        O261   1.260       .  A
C248       C1467   1.476       .  S
O249        C259   1.264       .  A
O249       Al251   1.923       .  S
O250        C263   1.267   1_556  A
O250       Al260   1.903       .  S
Al251       O264   1.910       .  S
Al251       O261   1.913       .  S
Al251       O256   1.785       .  S
O252        C259   1.263       .  A
O252       Al260   1.925       .  S
O253        C262   1.263       .  A
O253       Al260   1.942       .  S
O254       Al260   1.922       .  S
O255        C262   1.260       .  A
O256       Al260   1.787       .  S
O257        C258   1.261       .  A
C258       C1487   1.475       .  S
C259       C1454   1.480       .  S
C262       C1614   1.488       .  S
C263        O264   1.265   1_554  A
C263       C1637   1.477       .  S
O265        C280   1.262       .  A
O265       Al273   1.918       .  S
C266        O276   1.269       .  A
C266        O267   1.261       .  A
C266       C1427   1.471       .  S
O267       Al269   1.894       .  S
O268        C270   1.258       .  A
O268       Al269   1.883       .  S
Al269       O277   1.892       .  S
Al269       O279   1.904       .  S
Al269       O278   1.765       .  S
C270        O283   1.259       .  A
C270       C1414   1.468       .  S
O271        C281   1.263       .  A
O271       Al273   1.911       .  S
O272        C285   1.269       .  A
O272       Al282   1.922       .  S
Al273       O286   1.903       .  S
Al273       O283   1.913       .  S
Al273       O278   1.787       .  S
O274        C281   1.267       .  A
O274       Al282   1.936       .  S
O275        C284   1.265       .  A
O275       Al282   1.945       .  S
O276       Al282   1.934       .  S
O277        C284   1.260       .  A
O278       Al282   1.784       .  S
O279        C280   1.261       .  A
C280       C1437   1.472       .  S
C281       C1447   1.483       .  S
C284       C1404   1.491       .  S
C285        O286   1.263       .  A
C285       C1394   1.483       .  S
O287        C302   1.255       .  A
O287       Al295   1.871       .  S
C288        O298   1.257       .  A
C288        O289   1.267       .  A
C288       C1364   1.461       .  S
O289       Al291   1.946       .  S
O290        C292   1.257       .  A
O290       Al291   1.877       .  S
Al291       O299   1.915       .  S
Al291       O301   1.933       .  S
Al291       O300   1.789       .  S
C292        O305   1.269       .  A
C292       C1477   1.484       .  S
O293        C303   1.256       .  A
O293       Al295   1.898       .  S
O294        C307   1.258       .  A
O294       Al304   1.865       .  S
Al295       O308   1.970       .  S
Al295       O305   1.959       .  S
Al295       O300   1.795       .  S
O296        C303   1.261       .  A
O296       Al304   1.915       .  S
O297        C306   1.260       .  A
O297       Al304   1.910       .  S
O298       Al304   1.870       .  S
O299        C306   1.260       .  A
O300       Al304   1.769       .  S
O301        C302   1.268       .  A
C302       C1354   1.483       .  S
C303       C1424   1.470       .  S
C306       C1377   1.473       .  S
C307        O308   1.274       .  A
C307       C1384   1.488       .  S
O309        C324   1.255       .  A
O309       Al317   1.857       .  S
C310        O320   1.260       .  A
C310        O311   1.270       .  A
C310       C1324   1.457       .  S
O311       Al313   1.943       .  S
O312        C314   1.258       .  A
O312       Al313   1.885       .  S
Al313       O321   1.920       .  S
Al313       O323   1.936       .  S
Al313       O322   1.787       .  S
C314        O327   1.266       .  A
C314       C1537   1.484       .  S
O315        C325   1.252       .  A
O315       Al317   1.891       .  S
O316        C329   1.258       .  A
O316       Al326   1.863       .  S
Al317       O330   1.978       .  S
Al317       O327   1.943       .  S
Al317       O322   1.788       .  S
O318        C325   1.262       .  A
O318       Al326   1.931       .  S
O319        C328   1.258       .  A
O319       Al326   1.914       .  S
O320       Al326   1.869       .  S
O321        C328   1.260       .  A
O322       Al326   1.774       .  S
O323        C324   1.268       .  A
C324       C1314   1.482       .  S
C325       C1344   1.468       .  S
C328       C1334   1.479       .  S
C329        O330   1.276       .  A
C329       C1374   1.484       .  S
O331        C346   1.265       .  A
O331       Al339   1.931       .  S
C332        O342   1.265       .  A
C332        O333   1.260       .  A
C332       C1347   1.466       .  S
O333       Al335   1.902       .  S
O334        C336   1.262       .  A
O334       Al335   1.901       .  S
Al335       O343   1.895       .  S
Al335       O345   1.891       .  S
Al335       O344   1.772       .  S
C336        O349   1.261       .  A
C336       C1367   1.482       .  S
O337        C347   1.263       .  A
O337       Al339   1.928       .  S
O338        C351   1.269       .  A
O338       Al348   1.910       .  S
Al339       O352   1.916       .  S
Al339       O349   1.903       .  S
Al339       O344   1.781       .  S
O340        C347   1.260       .  A
O340       Al348   1.913       .  S
O341        C350   1.264       .  A
O341       Al348   1.945       .  S
O342       Al348   1.925       .  S
O343        C350   1.259       .  A
O344       Al348   1.788       .  S
O345        C346   1.258       .  A
C346       C1407   1.480       .  S
C347       C1304   1.484       .  S
C350       C1297   1.481       .  S
C351        O352   1.267       .  A
C351       C1284   1.477       .  S
O353        C368   1.258       .  A
O353       Al361   1.886       .  S
C354        O364   1.261       .  A
C354        O355   1.270       .  A
C354       C1417   1.461       .  S
O355       Al357   1.945       .  S
O356        C358   1.255       .  A
O356       Al357   1.866       .  S
Al357       O365   1.916       .  S
Al357       O367   1.915       .  S
Al357       O366   1.788       .  S
C358        O371   1.269       .  A
C358       C1577   1.492       .  S
O359        C369   1.254       .  A
O359       Al361   1.904       .  S
O360        C373   1.263       .  A
O360       Al370   1.878       .  S
Al361       O374   1.978       .  S
Al361       O371   1.960       .  S
Al361       O366   1.795       .  S
O362        C369   1.256       .  A
O362       Al370   1.904       .  S
O363        C372   1.256       .  A
O363       Al370   1.906       .  S
O364       Al370   1.873       .  S
O365        C372   1.256       .  A
O366       Al370   1.775       .  S
O367        C368   1.265       .  A
C368       C1267   1.492       .  S
C369       C1274   1.469       .  S
C372       C1387   1.474       .  S
C373        O374   1.278       .  A
C373       C1337   1.486       .  S
O375        C390   1.263       .  A
O375       Al383   1.925       .  S
C376        O386   1.270       .  A
C376        O377   1.266       .  A
C376       C1277   1.471       .  S
O377       Al379   1.905       .  S
O378        C380   1.259       .  A
O378       Al379   1.882       .  S
Al379       O387   1.898       .  S
Al379       O389   1.881       .  S
Al379       O388   1.767       .  S
C380        O393   1.258       .  A
C380       C1327   1.478       .  S
O381        C391   1.261       .  A
O381       Al383   1.923       .  S
O382        C395   1.270       .  A
O382       Al392   1.897       .  S
Al383       O396   1.911       .  S
Al383       O393   1.895       .  S
Al383       O388   1.785       .  S
O384        C391   1.258       .  A
O384       Al392   1.913       .  S
O385        C394   1.260       .  A
O385       Al392   1.934       .  S
O386       Al392   1.924       .  S
O387        C394   1.256       .  A
O388       Al392   1.786       .  S
O389        C390   1.257       .  A
C390       C1294   1.474       .  S
C391       C1254   1.480       .  S
C394       C1434   1.483       .  S
C395        O396   1.267       .  A
C395       C1244   1.475       .  S
O397        C412   1.255       .  A
O397       Al405   1.865   1_556  S
C398        O408   1.259       .  A
C398        O399   1.272       .  A
C398       C1214   1.463       .  S
O399       Al401   1.956       .  S
O400        C402   1.257       .  A
O400       Al401   1.877       .  S
Al401       O409   1.920       .  S
Al401       O411   1.927   1_554  S
Al401       O410   1.788       .  S
C402        O415   1.265       .  A
C402       C1194   1.480       .  S
O403        C413   1.253       .  A
O403       Al405   1.897       .  S
O404        C417   1.261       .  A
O404       Al414   1.869       .  S
Al405       O418   1.970       .  S
Al405       O415   1.939       .  S
Al405       O410   1.795       .  S
O406        C413   1.258       .  A
O406       Al414   1.907       .  S
O407        C416   1.258       .  A
O407       Al414   1.914       .  S
O408       Al414   1.867       .  S
O409        C416   1.258       .  A
O410       Al414   1.771       .  S
O411        C412   1.268       .  A
C412       C1317   1.483       .  S
C413       C1224   1.465       .  S
C416       C1204   1.480       .  S
C417        O418   1.275       .  A
C417       C1237   1.484       .  S
O419        C434   1.262       .  A
O419       Al427   1.915       .  S
C420        O430   1.268       .  A
C420        O421   1.264       .  A
C420       C1227   1.470       .  S
O421       Al423   1.901       .  S
O422        C424   1.260       .  A
O422       Al423   1.894       .  S
Al423       O431   1.898       .  S
Al423       O433   1.897       .  S
Al423       O432   1.765       .  S
C424        O437   1.258       .  A
C424       C1177   1.474       .  S
O425        C435   1.261       .  A
O425       Al427   1.909       .  S
O426        C439   1.267       .  A
O426       Al436   1.906       .  S
Al427       O440   1.904       .  S
Al427       O437   1.904       .  S
Al427       O432   1.785       .  S
O428        C435   1.262       .  A
O428       Al436   1.920       .  S
O429        C438   1.262       .  A
O429       Al436   1.932       .  S
O430       Al436   1.923       .  S
O431        C438   1.259       .  A
O432       Al436   1.789       .  S
O433        C434   1.260       .  A
C434       C1184   1.470       .  S
C435       C1864   1.471       .  S
C438       C1164   1.482       .  S
C439        O440   1.264       .  A
C439       C1247   1.471       .  S
O441        C456   1.262       .  A
O441       Al449   1.917       .  S
C442        O452   1.266       .  A
C442        O443   1.261       .  A
C442       C1157   1.469       .  S
O443       Al445   1.890       .  S
O444        C446   1.259       .  A
O444       Al445   1.889       .  S
Al445       O453   1.893       .  S
Al445       O455   1.899       .  S
Al445       O454   1.764       .  S
C446        O459   1.261       .  A
C446       C1217   1.477       .  S
O447        C457   1.261       .  A
O447       Al449   1.907       .  S
O448        C461   1.267       .  A
O448       Al458   1.910       .  S
Al449       O462   1.918       .  S
Al449       O459   1.918       .  S
Al449       O454   1.784       .  S
O450        C457   1.265       .  A
O450       Al458   1.930       .  S
O451        C460   1.264       .  A
O451       Al458   1.942       .  S
O452       Al458   1.925       .  S
O453        C460   1.260       .  A
O454       Al458   1.785       .  S
O455        C456   1.261       .  A
C456       C1167   1.470       .  S
C457       C1647   1.477       .  S
C460       C1144   1.486       .  S
C461        O462   1.266       .  A
C461       C1287   1.492       .  S
O463        C478   1.255       .  A
O463       Al471   1.857   1_556  S
C464        O474   1.257       .  A
C464        O465   1.269       .  A
C464       C1114   1.464       .  S
O465       Al467   1.952       .  S
O466        C468   1.256       .  A
O466       Al467   1.878       .  S
Al467       O475   1.913       .  S
Al467       O477   1.950   1_554  S
Al467       O476   1.787       .  S
C468        O481   1.266       .  A
C468       C1134   1.475       .  S
O469        C479   1.255       .  A
O469       Al471   1.894       .  S
O470        C483   1.258       .  A
O470       Al480   1.869       .  S
Al471       O484   1.970       .  S
Al471       O481   1.944       .  S
Al471       O476   1.792       .  S
O472        C479   1.262       .  A
O472       Al480   1.911       .  S
O473        C482   1.259       .  A
O473       Al480   1.903       .  S
O474       Al480   1.870       .  S
O475        C482   1.261       .  A
O476       Al480   1.766       .  S
O477        C478   1.271       .  A
C478       C1357   1.489       .  S
C479       C1154   1.465       .  S
C482       C1124   1.470       .  S
C483        O484   1.273       .  A
C483       C1207   1.488       .  S
O485        C500   1.256       .  A
O485       Al493   1.869   1_556  S
C486        O496   1.261       .  A
C486        O487   1.273       .  A
C486       C1174   1.466       .  S
O487       Al489   1.956       .  S
O488        C490   1.256       .  A
O488       Al489   1.868       .  S
Al489       O497   1.907       .  S
Al489       O499   1.941   1_554  S
Al489       O498   1.786       .  S
C490        O503   1.264       .  A
C490       C1104   1.478       .  S
O491        C501   1.253       .  A
O491       Al493   1.898       .  S
O492        C505   1.261       .  A
O492       Al502   1.870       .  S
Al493       O506   1.969       .  S
Al493       O503   1.936       .  S
Al493       O498   1.788       .  S
O494        C501   1.260       .  A
O494       Al502   1.925       .  S
O495        C504   1.260       .  A
O495       Al502   1.918       .  S
O496       Al502   1.877       .  S
O497        C504   1.256       .  A
O498       Al502   1.774       .  S
O499        C500   1.269       .  A
C500       C1264   1.494       .  S
C501       C1094   1.469       .  S
C504       C1234   1.473       .  S
C505        O506   1.275       .  A
C505       C1127   1.481       .  S
O507        C522   1.262       .  A
O507       Al515   1.921       .  S
C508        O518   1.267       .  A
C508        O509   1.263       .  A
C508       C1097   1.467       .  S
O509       Al511   1.908       .  S
O510        C512   1.260       .  A
O510       Al511   1.891       .  S
Al511       O519   1.895       .  S
Al511       O521   1.889       .  S
Al511       O520   1.770       .  S
C512        O525   1.262       .  A
C512       C1117   1.485       .  S
O513        C523   1.262       .  A
O513       Al515   1.919       .  S
O514        C527   1.270       .  A
O514       Al524   1.907       .  S
Al515       O528   1.915       .  S
Al515       O525   1.910       .  S
Al515       O520   1.782       .  S
O516        C523   1.260       .  A
O516       Al524   1.921       .  S
O517        C526   1.263       .  A
O517       Al524   1.944       .  S
O518       Al524   1.924       .  S
O519        C526   1.257       .  A
O520       Al524   1.787       .  S
O521        C522   1.258       .  A
C522       C1147   1.475       .  S
C523       C1707   1.485       .  S
C526       C1187   1.480       .  S
C527        O528   1.268       .  A
C527       C1397   1.479       .  S
O529        C544   1.252       .  A
O529       Al537   1.852       .  S
C530        O540   1.263       .  A
C530        O531   1.272       .  A
C530       C1054   1.461       .  S
O531       Al533   1.946       .  S
O532        C534   1.259       .  A
O532       Al533   1.884       .  S
Al533       O541   1.918       .  S
Al533       O543   1.930       .  S
Al533       O542   1.788       .  S
C534        O547   1.266       .  A
C534       C1807   1.489       .  S
O535        C545   1.250       .  A
O535       Al537   1.891   1_455  S
O536        C549   1.260   1_655  A
O536       Al546   1.865       .  S
Al537       O550   1.984   1_655  S
Al537       O547   1.942       .  S
Al537       O542   1.788       .  S
O538        C545   1.258       .  A
O538       Al546   1.917   1_455  S
O539        C548   1.257       .  A
O539       Al546   1.904       .  S
O540       Al546   1.872       .  S
O541        C548   1.259       .  A
O542       Al546   1.773       .  S
O543        C544   1.267       .  A
C544       C1047   1.485       .  S
C545       C1064   1.463       .  S
C548       C1074   1.475       .  S
C549        O550   1.278       .  A
C549       C1087   1.485       .  S
O551        C566   1.268       .  A
O551       Al559   1.941       .  S
C552        O562   1.261       .  A
C552        O553   1.258       .  A
C552       C1067   1.460       .  S
O553       Al555   1.895       .  S
O554        C556   1.260       .  A
O554       Al555   1.887       .  S
Al555       O563   1.877       .  S
Al555       O565   1.888       .  S
Al555       O564   1.764       .  S
C556        O569   1.262       .  A
C556       C1014   1.480       .  S
O557        C567   1.265       .  A
O557       Al559   1.923       .  S
O558        C571   1.266       .  A
O558       Al568   1.901       .  S
Al559       O572   1.904       .  S
Al559       O569   1.912       .  S
Al559       O564   1.777       .  S
O560        C567   1.263       .  A
O560       Al568   1.922       .  S
O561        C570   1.269       .  A
O561       Al568   1.959       .  S
O562       Al568   1.917       .  S
O563        C570   1.257       .  A
O564       Al568   1.786       .  S
O565        C566   1.258       .  A
C566       C1037   1.483       .  S
C567       C1444   1.480       .  S
C570       C1027   1.477   1_455  S
C571        O572   1.264       .  A
C571       C1007   1.469       .  S
O573        C588   1.259   1_565  A
O573       Al581   1.876       .  S
C574        O584   1.259       .  A
C574        O575   1.268       .  A
C574       C1017   1.458       .  S
O575       Al577   1.938       .  S
O576        C578   1.257       .  A
O576       Al577   1.888       .  S
Al577       O585   1.925       .  S
Al577       O587   1.941       .  S
Al577       O586   1.788       .  S
C578        O591   1.265       .  A
C578       C1667   1.488       .  S
O579        C589   1.258       .  A
O579       Al581   1.909       .  S
O580        C593   1.259       .  A
O580       Al590   1.879   1_565  S
Al581       O594   1.960       .  S
Al581       O591   1.948   1_565  S
Al581       O586   1.795   1_565  S
O582        C589   1.260       .  A
O582       Al590   1.913   1_565  S
O583        C592   1.257       .  A
O583       Al590   1.903       .  S
O584       Al590   1.872       .  S
O585        C592   1.261       .  A
O586       Al590   1.772       .  S
O587        C588   1.269       .  A
C588        C977   1.494       .  S
C589        C987   1.472       .  S
C592       C1084   1.479       .  S
C593        O594   1.273       .  A
C593        C997   1.481       .  S
O595        C610   1.263       .  A
O595       Al603   1.920       .  S
C596        O606   1.269       .  A
C596        O597   1.264       .  A
C596        C954   1.474       .  S
O597       Al599   1.895       .  S
O598        C600   1.260   1_565  A
O598       Al599   1.902       .  S
Al599       O607   1.908       .  S
Al599       O609   1.899   1_565  S
Al599       O608   1.770       .  S
C600        O613   1.255       .  A
C600       C1057   1.466       .  S
O601        C611   1.261       .  A
O601       Al603   1.914   1_565  S
O602        C615   1.267       .  A
O602       Al612   1.905       .  S
Al603       O616   1.900   1_545  S
Al603       O613   1.884       .  S
Al603       O608   1.787   1_545  S
O604        C611   1.261       .  A
O604       Al612   1.921       .  S
O605        C614   1.261       .  A
O605       Al612   1.924       .  S
O606       Al612   1.930       .  S
O607        C614   1.260       .  A
O608       Al612   1.789       .  S
O609        C610   1.261       .  A
C610       C1024   1.475       .  S
C611       C1257   1.479       .  S
C614        C964   1.486       .  S
C615        O616   1.263       .  A
C615        C944   1.472       .  S
O617        C632   1.256       .  A
O617       Al625   1.885       .  S
C618        O628   1.260       .  A
C618        O619   1.274       .  A
C618        C934   1.470       .  S
O619       Al621   1.961       .  S
O620        C622   1.256       .  A
O620       Al621   1.869       .  S
Al621       O629   1.920       .  S
Al621       O631   1.915       .  S
Al621       O630   1.789       .  S
C622        O635   1.268       .  A
C622       C1717   1.480       .  S
O623        C633   1.253       .  A
O623       Al625   1.910       .  S
O624        C637   1.264       .  A
O624       Al634   1.869       .  S
Al625       O638   1.974       .  S
Al625       O635   1.946       .  S
Al625       O630   1.793       .  S
O626        C633   1.254       .  A
O626       Al634   1.895       .  S
O627        C636   1.257       .  A
O627       Al634   1.917       .  S
O628       Al634   1.868       .  S
O629        C636   1.257       .  A
O630       Al634   1.773       .  S
O631        C632   1.264       .  A
C632        C924   1.493       .  S
C633        C957   1.473       .  S
C636        C994   1.478       .  S
C637        O638   1.279       .  A
C637       C1077   1.492       .  S
O639        C654   1.265       .  A
O639       Al647   1.920       .  S
C640        O650   1.266       .  A
C640        O641   1.261       .  A
C640        C984   1.471       .  S
O641       Al643   1.895   1_455  S
O642        C644   1.258       .  A
O642       Al643   1.896       .  S
Al643       O651   1.894       .  S
Al643       O653   1.915       .  S
Al643       O652   1.764       .  S
C644        O657   1.259       .  A
C644        C937   1.469       .  S
O645        C655   1.267   1_655  A
O645       Al647   1.910       .  S
O646        C659   1.264   1_455  A
O646       Al656   1.918       .  S
Al647       O660   1.905       .  S
Al647       O657   1.919       .  S
Al647       O652   1.787       .  S
O648        C655   1.270       .  A
O648       Al656   1.943       .  S
O649        C658   1.265       .  A
O649       Al656   1.937       .  S
O650       Al656   1.927       .  S
O651        C658   1.261   1_655  A
O652       Al656   1.777   1_655  S
O653        C654   1.265       .  A
C654        C967   1.471       .  S
C655       C1307   1.479       .  S
C658       C1034   1.494       .  S
C659        O660   1.259       .  A
C659        C914   1.476       .  S
O661        C676   1.263       .  A
O661       Al669   1.929   1_455  S
C662        O672   1.269       .  A
C662        O663   1.264       .  A
C662        C874   1.469       .  S
O663       Al665   1.906       .  S
O664        C666   1.259       .  A
O664       Al665   1.881       .  S
Al665       O673   1.898       .  S
Al665       O675   1.890       .  S
Al665       O674   1.766       .  S
C666        O679   1.261   1_655  A
C666        C894   1.478   1_655  S
O667        C677   1.261       .  A
O667       Al669   1.918       .  S
O668        C681   1.268       .  A
O668       Al678   1.907       .  S
Al669       O682   1.918       .  S
Al669       O679   1.911   1_655  S
Al669       O674   1.786       .  S
O670        C677   1.261       .  A
O670       Al678   1.925       .  S
O671        C680   1.262       .  A
O671       Al678   1.939       .  S
O672       Al678   1.926       .  S
O673        C680   1.258       .  A
O674       Al678   1.786       .  S
O675        C676   1.258   1_655  A
C676        C904   1.478       .  S
C677       C1457   1.486       .  S
C680        C884   1.482       .  S
C681        O682   1.267       .  A
C681        C917   1.464       .  S
O683        C698   1.256   1_545  A
O683       Al691   1.864       .  S
C684        O694   1.257       .  A
C684        O685   1.271       .  A
C684        C897   1.464       .  S
O685       Al687   1.958       .  S
O686        C688   1.256       .  A
O686       Al687   1.873       .  S
Al687       O695   1.912       .  S
Al687       O697   1.949       .  S
Al687       O696   1.783       .  S
C688        O701   1.268       .  A
C688       C1197   1.482       .  S
O689        C699   1.254       .  A
O689       Al691   1.893       .  S
O690        C703   1.259       .  A
O690       Al700   1.863   1_545  S
Al691       O704   1.973       .  S
Al691       O701   1.954   1_545  S
Al691       O696   1.791   1_545  S
O692        C699   1.260       .  A
O692       Al700   1.910   1_545  S
O693        C702   1.261       .  A
O693       Al700   1.918       .  S
O694       Al700   1.871       .  S
O695        C702   1.259       .  A
O696       Al700   1.768       .  S
O697        C698   1.270       .  A
C698        C974   1.494       .  S
C699        C854   1.460       .  S
C702        C844   1.474       .  S
C703        O704   1.274       .  A
C703        C864   1.486       .  S
O705        C720   1.264       .  A
O705       Al713   1.922       .  S
C706        O716   1.264       .  A
C706        O707   1.263       .  A
C706        C857   1.464       .  S
O707       Al709   1.906       .  S
O708        C710   1.261       .  A
O708       Al709   1.898       .  S
Al709       O717   1.900       .  S
Al709       O719   1.895       .  S
Al709       O718   1.767       .  S
C710        O723   1.260       .  A
C710        C824   1.479       .  S
O711        C721   1.262       .  A
O711       Al713   1.918       .  S
O712        C725   1.266       .  A
O712       Al722   1.892       .  S
Al713       O726   1.919       .  S
Al713       O723   1.911       .  S
Al713       O718   1.786       .  S
O714        C721   1.264       .  A
O714       Al722   1.932       .  S
O715        C724   1.265       .  A
O715       Al722   1.950       .  S
O716       Al722   1.910       .  S
O717        C724   1.259       .  A
O718       Al722   1.785       .  S
O719        C720   1.260       .  A
C720        C834   1.473       .  S
C721       C1627   1.483       .  S
C724        C907   1.489       .  S
C725        O726   1.266       .  A
C725       C1004   1.484       .  S
O727        C742   1.260       .  A
O727       Al735   1.915       .  S
C728        O738   1.270       .  A
C728        O729   1.264       .  A
C728        C817   1.470       .  S
O729       Al731   1.897       .  S
O730        C732   1.258   1_545  A
O730       Al731   1.886       .  S
Al731       O739   1.898       .  S
Al731       O741   1.893   1_545  S
Al731       O740   1.765       .  S
C732        O745   1.260       .  A
C732        C804   1.472       .  S
O733        C743   1.261       .  A
O733       Al735   1.911   1_545  S
O734        C747   1.269       .  A
O734       Al744   1.905       .  S
Al735       O748   1.906   1_565  S
Al735       O745   1.905       .  S
Al735       O740   1.785   1_565  S
O736        C743   1.260       .  A
O736       Al744   1.914       .  S
O737        C746   1.261       .  A
O737       Al744   1.935       .  S
O738       Al744   1.931       .  S
O739        C746   1.259       .  A
O740       Al744   1.785       .  S
O741        C742   1.259       .  A
C742        C887   1.471       .  S
C743       C1504   1.477       .  S
C746        C837   1.483       .  S
C747        O748   1.265       .  A
C747        C947   1.475       .  S
O749        C764   1.254       .  A
O749       Al757   1.858       .  S
C750        O760   1.259       .  A
C750        O751   1.273       .  A
C750        C827   1.465       .  S
O751       Al753   1.958       .  S
O752        C754   1.255       .  A
O752       Al753   1.875       .  S
Al753       O761   1.914       .  S
Al753       O763   1.935       .  S
Al753       O762   1.790   1_455  S
C754        O767   1.263   1_455  A
C754       C1137   1.474       .  S
O755        C765   1.254       .  A
O755       Al757   1.897       .  S
O756        C769   1.261       .  A
O756       Al766   1.868       .  S
Al757       O770   1.960       .  S
Al757       O767   1.931       .  S
Al757       O762   1.795       .  S
O758        C765   1.259       .  A
O758       Al766   1.915       .  S
O759        C768   1.257       .  A
O759       Al766   1.909   1_455  S
O760       Al766   1.867   1_455  S
O761        C768   1.256       .  A
O762       Al766   1.770       .  S
O763        C764   1.269   1_455  A
C764       C1044   1.486       .  S
C765        C814   1.467       .  S
C768        C867   1.475       .  S
C769        O770   1.273       .  A
C769        C794   1.481       .  S
O771        C786   1.255       .  A
O771       Al779   1.863       .  S
C772        O782   1.260       .  A
C772        O773   1.272       .  A
C772        C807   1.465       .  S
O773       Al775   1.955       .  S
O774        C776   1.254       .  A
O774       Al775   1.859       .  S
Al775       O783   1.902       .  S
Al775       O785   1.941       .  S
Al775       O784   1.787       .  S
C776        O789   1.267       .  A
C776       C1107   1.483       .  S
O777        C787   1.254       .  A
O777       Al779   1.896       .  S
O778        C791   1.261       .  A
O778       Al788   1.874       .  S
Al779       O792   1.970       .  S
Al779       O789   1.954       .  S
Al779       O784   1.789       .  S
O780        C787   1.259       .  A
O780       Al788   1.918       .  S
O781        C790   1.259       .  A
O781       Al788   1.908       .  S
O782       Al788   1.876       .  S
O783        C790   1.256       .  A
O784       Al788   1.771       .  S
O785        C786   1.269       .  A
C786        C927   1.493       .  S
C787        C877   1.466       .  S
C790        C797   1.466       .  S
C791        O792   1.275       .  A
C791        C847   1.483       .  S
C793        C794   1.407       .  A
C793        C798   1.392   1_545  A
C793        F800   1.353       .  S
C794        C795   1.406       .  A
C795        C796   1.405   1_545  A
C795        F802   1.357       .  S
C796        C797   1.407       .  A
C796        F801   1.357       .  S
C797        C798   1.396       .  A
C798        F799   1.356       .  S
C803        C804   1.406   1_554  A
C803        C808   1.396       .  A
C803        F810   1.359   1_565  S
C804        C805   1.406       .  A
C805        C806   1.396       .  A
C805        F812   1.358       .  S
C806        C807   1.403   1_556  A
C806        F811   1.354       .  S
C807        C808   1.403       .  A
C808        F809   1.356       .  S
C813        C814   1.400   1_556  A
C813        C818   1.391       .  A
C813        F820   1.357       .  S
C814        C815   1.406       .  A
C815        C816   1.407   1_554  A
C815        F822   1.358       .  S
C816        C817   1.407       .  A
C816        F821   1.358       .  S
C817        C818   1.405       .  A
C818        F819   1.357       .  S
C823        C824   1.411       .  A
C823        C828   1.401       .  A
C823        F830   1.358       .  S
C824        C825   1.405       .  A
C825        C826   1.396   1_556  A
C825        F832   1.358       .  S
C826        C827   1.404       .  A
C826        F831   1.355       .  S
C827        C828   1.402   1_554  A
C828        F829   1.358       .  S
C833        C834   1.403       .  A
C833        C838   1.406   1_455  A
C833        F840   1.357       .  S
C834        C835   1.402       .  A
C835        C836   1.395   1_455  A
C835        F842   1.354       .  S
C836        C837   1.404       .  A
C836        F841   1.356       .  S
C837        C838   1.412       .  A
C838        F839   1.357       .  S
C843        C844   1.399   1_655  A
C843        C848   1.399       .  A
C843        F850   1.356   1_655  S
C844        C845   1.407   1_455  A
C845        C846   1.405       .  A
C845        F852   1.357       .  S
C846        C847   1.406       .  A
C846        F851   1.357       .  S
C847        C848   1.409       .  A
C848        F849   1.356       .  S
C853        C854   1.402       .  A
C853        C858   1.399   1_554  A
C853        F860   1.357       .  S
C854        C855   1.401   1_554  A
C855        C856   1.393       .  A
C855        F862   1.358   1_545  S
C856        C857   1.404       .  A
C856        F861   1.356       .  S
C857        C858   1.403       .  A
C858        F859   1.355       .  S
C863        C864   1.409       .  A
C863        C868   1.393       .  A
C863        F870   1.356       .  S
C864        C865   1.408       .  A
C865        C866   1.410       .  A
C865        F872   1.357       .  S
C866        C867   1.409       .  A
C866        F871   1.358       .  S
C867        C868   1.396       .  A
C868        F869   1.353       .  S
C873        C874   1.405       .  A
C873        C878   1.394       .  A
C873        F880   1.355       .  S
C874        C875   1.406       .  A
C875        C876   1.405   1_556  A
C875        F882   1.358       .  S
C876        C877   1.405       .  A
C876        F881   1.358       .  S
C877        C878   1.399   1_554  A
C878        F879   1.357       .  S
C883        C884   1.411       .  A
C883        C888   1.405       .  A
C883        F890   1.356       .  S
C884        C885   1.404       .  A
C885        C886   1.396       .  A
C885        F892   1.356       .  S
C886        C887   1.402       .  A
C886        F891   1.356       .  S
C887        C888   1.403       .  A
C888        F889   1.358       .  S
C893        C894   1.410       .  A
C893        C898   1.401       .  A
C893        F900   1.358       .  S
C894        C895   1.406   1_455  A
C895        C896   1.392   1_656  A
C895        F902   1.359       .  S
C896        C897   1.403       .  A
C896        F901   1.355   1_455  S
C897        C898   1.403   1_554  A
C898        F899   1.356       .  S
C903        C904   1.405       .  A
C903        C908   1.408       .  A
C903        F910   1.357       .  S
C904        C905   1.403       .  A
C905        C906   1.398   1_565  A
C905        F912   1.357   1_455  S
C906        C907   1.405       .  A
C906        F911   1.354       .  S
C907        C908   1.411   1_545  A
C908        F909   1.356   1_565  S
C913        C914   1.406       .  A
C913        C918   1.399       .  A
C913        F920   1.358       .  S
C914        C915   1.410       .  A
C915        C916   1.399       .  A
C915        F922   1.358       .  S
C916        C917   1.401       .  A
C916        F921   1.358       .  S
C917        C918   1.404       .  A
C918        F919   1.358       .  S
C923        C924   1.407       .  A
C923        C928   1.396       .  A
C923        F930   1.358       .  S
C924        C925   1.415       .  A
C925        C926   1.404       .  A
C925        F932   1.358       .  S
C926        C927   1.408       .  A
C926        F931   1.358       .  S
C927        C928   1.414       .  A
C928        F929   1.358       .  S
C933        C934   1.406       .  A
C933        C938   1.398       .  A
C933        F940   1.358       .  S
C934        C935   1.401       .  A
C935        C936   1.397       .  A
C935        F942   1.351       .  S
C936        C937   1.403       .  A
C936        F941   1.358       .  S
C937        C938   1.405       .  A
C938        F939   1.358       .  S
C943        C944   1.411   1_545  A
C943        C948   1.395       .  A
C943        F950   1.358       .  S
C944        C945   1.400       .  A
C945        C946   1.395       .  A
C945        F952   1.358       .  S
C946        C947   1.413   1_565  A
C946        F951   1.358       .  S
C947        C948   1.402       .  A
C948        F949   1.358       .  S
C953        C954   1.406       .  A
C953        C958   1.389       .  A
C953        F960   1.358       .  S
C954        C955   1.407       .  A
C955        C956   1.409       .  A
C955        F962   1.357       .  S
C956        C957   1.408       .  A
C956        F961   1.357       .  S
C957        C958   1.402       .  A
C958        F959   1.358       .  S
C963        C964   1.413       .  A
C963        C968   1.403       .  A
C963        F970   1.358       .  S
C964        C965   1.406       .  A
C965        C966   1.400       .  A
C965        F972   1.358       .  S
C966        C967   1.404       .  A
C966        F971   1.357       .  S
C967        C968   1.401       .  A
C968        F969   1.358       .  S
C973        C974   1.407       .  A
C973        C978   1.402       .  A
C973        F980   1.357       .  S
C974        C975   1.415   1_565  A
C975        C976   1.400       .  A
C975        F982   1.359       .  S
C976        C977   1.407       .  A
C976        F981   1.357       .  S
C977        C978   1.414   1_545  A
C978        F979   1.358       .  S
C983        C984   1.405       .  A
C983        C988   1.396       .  A
C983        F990   1.359       .  S
C984        C985   1.405       .  A
C985        C986   1.406       .  A
C985        F992   1.357       .  S
C986        C987   1.406       .  A
C986        F991   1.357       .  S
C987        C988   1.403       .  A
C988        F989   1.358   1_565  S
C993        C994   1.401       .  A
C993        C998   1.402   1_655  A
C993       F1000   1.356       .  S
C994        C995   1.404       .  A
C995        C996   1.401   1_655  A
C995       F1002   1.351       .  S
C996        C997   1.404       .  A
C996       F1001   1.358       .  S
C997        C998   1.410       .  A
C998        F999   1.358       .  S
C1003      C1004   1.408       .  A
C1003      C1008   1.394       .  A
C1003      F1010   1.358       .  S
C1004      C1005   1.415       .  A
C1005      C1006   1.400       .  A
C1005      F1012   1.358       .  S
C1006      C1007   1.401       .  A
C1006      F1011   1.358       .  S
C1007      C1008   1.404       .  A
C1008      F1009   1.358       .  S
C1013      C1014   1.414       .  A
C1013      C1018   1.399       .  A
C1013      F1020   1.358       .  S
C1014      C1015   1.408       .  A
C1015      C1016   1.390       .  A
C1015      F1022   1.358       .  S
C1016      C1017   1.400       .  A
C1016      F1021   1.356       .  S
C1017      C1018   1.398       .  A
C1018      F1019   1.356       .  S
C1023      C1024   1.404       .  A
C1023      C1028   1.399       .  A
C1023      F1030   1.358       .  S
C1024      C1025   1.406       .  A
C1025      C1026   1.405       .  A
C1025      F1032   1.356       .  S
C1026      C1027   1.407       .  A
C1026      F1031   1.358       .  S
C1027      C1028   1.405       .  A
C1028      F1029   1.358   1_655  S
C1033      C1034   1.416       .  A
C1033      C1038   1.409   1_565  A
C1033      F1040   1.357       .  S
C1034      C1035   1.408       .  A
C1035      C1036   1.394   1_565  A
C1035      F1042   1.357   1_455  S
C1036      C1037   1.407       .  A
C1036      F1041   1.358       .  S
C1037      C1038   1.403       .  A
C1038      F1039   1.357       .  S
C1043      C1044   1.404   1_455  A
C1043      C1048   1.396       .  A
C1043      F1050   1.358       .  S
C1044      C1045   1.416       .  A
C1045      C1046   1.397       .  A
C1045      F1052   1.358       .  S
C1046      C1047   1.404       .  A
C1046      F1051   1.358       .  S
C1047      C1048   1.415   1_655  A
C1048      F1049   1.358       .  S
C1053      C1054   1.406       .  A
C1053      C1058   1.398       .  A
C1053      F1060   1.355       .  S
C1054      C1055   1.400       .  A
C1055      C1056   1.392       .  A
C1055      F1062   1.358       .  S
C1056      C1057   1.406       .  A
C1056      F1061   1.357       .  S
C1057      C1058   1.402       .  A
C1058      F1059   1.358   1_545  S
C1063      C1064   1.403       .  A
C1063      C1068   1.400       .  A
C1063      F1070   1.358   1_455  S
C1064      C1065   1.400       .  A
C1065      C1066   1.394       .  A
C1065      F1072   1.358       .  S
C1066      C1067   1.404       .  A
C1066      F1071   1.357       .  S
C1067      C1068   1.404       .  A
C1068      F1069   1.357       .  S
C1073      C1074   1.407   1_565  A
C1073      C1078   1.409       .  A
C1073      F1080   1.357   1_565  S
C1074      C1075   1.398       .  A
C1075      C1076   1.394   1_545  A
C1075      F1082   1.356       .  S
C1076      C1077   1.412       .  A
C1076      F1081   1.355       .  S
C1077      C1078   1.410       .  A
C1078      F1079   1.357       .  S
C1083      C1084   1.410       .  A
C1083      C1088   1.408       .  A
C1083      F1090   1.358       .  S
C1084      C1085   1.401       .  A
C1085      C1086   1.401       .  A
C1085      F1092   1.358       .  S
C1086      C1087   1.409       .  A
C1086      F1091   1.357       .  S
C1087      C1088   1.404       .  A
C1088      F1089   1.357       .  S
C1093      C1094   1.404       .  A
C1093      C1098   1.401       .  A
C1093      F1100   1.358       .  S
C1094      C1095   1.402       .  A
C1095      C1096   1.399       .  A
C1095      F1102   1.358       .  S
C1096      C1097   1.405       .  A
C1096      F1101   1.358       .  S
C1097      C1098   1.405       .  A
C1098      F1099   1.357       .  S
C1103      C1104   1.401       .  A
C1103      C1108   1.390       .  A
C1103      F1110   1.359       .  S
C1104      C1105   1.410       .  A
C1105      C1106   1.413       .  A
C1105      F1112   1.357       .  S
C1106      C1107   1.408       .  A
C1106      F1111   1.357       .  S
C1107      C1108   1.405       .  A
C1108      F1109   1.355       .  S
C1113      C1114   1.399       .  A
C1113      C1118   1.401       .  A
C1113      F1120   1.357       .  S
C1114      C1115   1.403       .  A
C1115      C1116   1.394       .  A
C1115      F1122   1.357       .  S
C1116      C1117   1.409       .  A
C1116      F1121   1.358       .  S
C1117      C1118   1.414       .  A
C1118      F1119   1.357       .  S
C1123      C1124   1.399   1_556  A
C1123      C1128   1.397       .  A
C1123      F1130   1.357       .  S
C1124      C1125   1.408       .  A
C1125      C1126   1.405       .  A
C1125      F1132   1.358       .  S
C1126      C1127   1.405       .  A
C1126      F1131   1.358       .  S
C1127      C1128   1.409   1_554  A
C1128      F1129   1.356       .  S
C1133      C1134   1.406       .  A
C1133      C1138   1.407       .  A
C1133      F1140   1.357       .  S
C1134      C1135   1.405       .  A
C1135      C1136   1.398       .  A
C1135      F1142   1.358       .  S
C1136      C1137   1.403       .  A
C1136      F1141   1.358       .  S
C1137      C1138   1.407       .  A
C1138      F1139   1.358   1_455  S
C1143      C1144   1.414       .  A
C1143      C1148   1.409       .  A
C1143      F1150   1.358       .  S
C1144      C1145   1.404       .  A
C1145      C1146   1.392       .  A
C1145      F1152   1.354       .  S
C1146      C1147   1.401       .  A
C1146      F1151   1.354       .  S
C1147      C1148   1.404       .  A
C1148      F1149   1.357       .  S
C1153      C1154   1.406       .  A
C1153      C1158   1.405       .  A
C1153      F1160   1.357       .  S
C1154      C1155   1.400       .  A
C1155      C1156   1.389       .  A
C1155      F1162   1.359       .  S
C1156      C1157   1.406       .  A
C1156      F1161   1.358       .  S
C1157      C1158   1.405       .  A
C1158      F1159   1.357       .  S
C1163      C1164   1.405       .  A
C1163      C1168   1.397       .  A
C1163      F1170   1.357       .  S
C1164      C1165   1.411       .  A
C1165      C1166   1.404       .  A
C1165      F1172   1.357       .  S
C1166      C1167   1.402       .  A
C1166      F1171   1.358       .  S
C1167      C1168   1.402       .  A
C1168      F1169   1.355       .  S
C1173      C1174   1.403       .  A
C1173      C1178   1.394       .  A
C1173      F1180   1.353       .  S
C1174      C1175   1.403       .  A
C1175      C1176   1.400       .  A
C1175      F1182   1.358       .  S
C1176      C1177   1.409       .  A
C1176      F1181   1.358       .  S
C1177      C1178   1.403       .  A
C1178      F1179   1.359       .  S
C1183      C1184   1.403       .  A
C1183      C1188   1.398       .  A
C1183      F1190   1.357       .  S
C1184      C1185   1.403       .  A
C1185      C1186   1.403       .  A
C1185      F1192   1.357       .  S
C1186      C1187   1.408       .  A
C1186      F1191   1.357       .  S
C1187      C1188   1.405       .  A
C1188      F1189   1.355       .  S
C1193      C1194   1.409       .  A
C1193      C1198   1.411       .  A
C1193      F1200   1.357       .  S
C1194      C1195   1.404       .  A
C1195      C1196   1.396       .  A
C1195      F1202   1.359       .  S
C1196      C1197   1.405       .  A
C1196      F1201   1.357       .  S
C1197      C1198   1.407       .  A
C1198      F1199   1.357       .  S
C1203      C1204   1.408       .  A
C1203      C1208   1.410       .  A
C1203      F1210   1.357       .  S
C1204      C1205   1.397       .  A
C1205      C1206   1.396       .  A
C1205      F1212   1.351   1_554  S
C1206      C1207   1.409       .  A
C1206      F1211   1.357   1_554  S
C1207      C1208   1.408       .  A
C1208      F1209   1.357       .  S
C1213      C1214   1.403       .  A
C1213      C1218   1.394       .  A
C1213      F1220   1.354       .  S
C1214      C1215   1.402       .  A
C1215      C1216   1.401       .  A
C1215      F1222   1.358       .  S
C1216      C1217   1.410       .  A
C1216      F1221   1.358       .  S
C1217      C1218   1.405       .  A
C1218      F1219   1.359       .  S
C1223      C1224   1.405       .  A
C1223      C1228   1.405       .  A
C1223      F1230   1.357       .  S
C1224      C1225   1.400       .  A
C1225      C1226   1.391       .  A
C1225      F1232   1.358       .  S
C1226      C1227   1.405       .  A
C1226      F1231   1.356       .  S
C1227      C1228   1.406       .  A
C1228      F1229   1.357       .  S
C1233      C1234   1.396       .  A
C1233      C1238   1.394       .  A
C1233      F1240   1.356   1_554  S
C1234      C1235   1.408       .  A
C1235      C1236   1.408       .  A
C1235      F1242   1.357       .  S
C1236      C1237   1.406       .  A
C1236      F1241   1.357       .  S
C1237      C1238   1.407       .  A
C1238      F1239   1.352   1_554  S
C1243      C1244   1.414       .  A
C1243      C1248   1.399       .  A
C1243      F1250   1.358       .  S
C1244      C1245   1.402       .  A
C1245      C1246   1.391       .  A
C1245      F1252   1.358       .  S
C1246      C1247   1.409       .  A
C1246      F1251   1.357       .  S
C1247      C1248   1.402       .  A
C1248      F1249   1.358       .  S
C1253      C1254   1.405       .  A
C1253      C1258   1.403       .  A
C1253      F1260   1.358       .  S
C1254      C1255   1.408       .  A
C1255      C1256   1.402       .  A
C1255      F1262   1.358       .  S
C1256      C1257   1.405       .  A
C1256      F1261   1.358       .  S
C1257      C1258   1.407       .  A
C1258      F1259   1.358       .  S
C1263      C1264   1.408       .  A
C1263      C1268   1.404       .  A
C1263      F1270   1.358       .  S
C1264      C1265   1.414       .  A
C1265      C1266   1.397       .  A
C1265      F1272   1.358       .  S
C1266      C1267   1.407       .  A
C1266      F1271   1.358       .  S
C1267      C1268   1.414       .  A
C1268      F1269   1.358       .  S
C1273      C1274   1.401       .  A
C1273      C1278   1.392       .  A
C1273      F1280   1.358       .  S
C1274      C1275   1.406       .  A
C1275      C1276   1.406       .  A
C1275      F1282   1.357       .  S
C1276      C1277   1.406       .  A
C1276      F1281   1.358       .  S
C1277      C1278   1.406       .  A
C1278      F1279   1.357       .  S
C1283      C1284   1.400       .  A
C1283      C1288   1.401       .  A
C1283      F1290   1.358       .  S
C1284      C1285   1.407       .  A
C1285      C1286   1.401       .  A
C1285      F1292   1.358       .  S
C1286      C1287   1.410       .  A
C1286      F1291   1.358       .  S
C1287      C1288   1.416       .  A
C1288      F1289   1.358       .  S
C1293      C1294   1.405       .  A
C1293      C1298   1.396       .  A
C1293      F1300   1.358       .  S
C1294      C1295   1.405       .  A
C1295      C1296   1.406       .  A
C1295      F1302   1.357       .  S
C1296      C1297   1.409       .  A
C1296      F1301   1.357       .  S
C1297      C1298   1.403       .  A
C1298      F1299   1.355       .  S
C1303      C1304   1.408       .  A
C1303      C1308   1.402       .  A
C1303      F1310   1.358       .  S
C1304      C1305   1.408       .  A
C1305      C1306   1.406       .  A
C1305      F1312   1.357       .  S
C1306      C1307   1.407       .  A
C1306      F1311   1.358       .  S
C1307      C1308   1.404       .  A
C1308      F1309   1.358       .  S
C1313      C1314   1.404       .  A
C1313      C1318   1.399       .  A
C1313      F1320   1.358       .  S
C1314      C1315   1.412       .  A
C1315      C1316   1.394       .  A
C1315      F1322   1.358       .  S
C1316      C1317   1.404       .  A
C1316      F1321   1.358       .  S
C1317      C1318   1.415       .  A
C1318      F1319   1.358       .  S
C1323      C1324   1.397       .  A
C1323      C1328   1.400       .  A
C1323      F1330   1.357       .  S
C1324      C1325   1.402       .  A
C1325      C1326   1.388       .  A
C1325      F1332   1.357       .  S
C1326      C1327   1.407       .  A
C1326      F1331   1.359       .  S
C1327      C1328   1.415       .  A
C1328      F1329   1.357       .  S
C1333      C1334   1.409       .  A
C1333      C1338   1.406       .  A
C1333      F1340   1.358       .  S
C1334      C1335   1.401       .  A
C1335      C1336   1.403       .  A
C1335      F1342   1.357       .  S
C1336      C1337   1.409       .  A
C1336      F1341   1.355       .  S
C1337      C1338   1.405       .  A
C1338      F1339   1.358       .  S
C1343      C1344   1.402       .  A
C1343      C1348   1.401       .  A
C1343      F1350   1.358       .  S
C1344      C1345   1.403       .  A
C1345      C1346   1.400       .  A
C1345      F1352   1.358       .  S
C1346      C1347   1.405       .  A
C1346      F1351   1.357       .  S
C1347      C1348   1.406       .  A
C1348      F1349   1.358       .  S
C1353      C1354   1.403       .  A
C1353      C1358   1.395       .  A
C1353      F1360   1.358       .  S
C1354      C1355   1.412       .  A
C1355      C1356   1.403       .  A
C1355      F1362   1.358       .  S
C1356      C1357   1.407       .  A
C1356      F1361   1.358       .  S
C1357      C1358   1.416       .  A
C1358      F1359   1.358       .  S
C1363      C1364   1.398       .  A
C1363      C1368   1.397       .  A
C1363      F1370   1.356       .  S
C1364      C1365   1.404       .  A
C1365      C1366   1.397       .  A
C1365      F1372   1.357       .  S
C1366      C1367   1.408       .  A
C1366      F1371   1.357       .  S
C1367      C1368   1.413       .  A
C1368      F1369   1.358       .  S
C1373      C1374   1.406       .  A
C1373      C1378   1.406       .  A
C1373      F1380   1.357       .  S
C1374      C1375   1.411       .  A
C1375      C1376   1.398       .  A
C1375      F1382   1.358       .  S
C1376      C1377   1.399       .  A
C1376      F1381   1.356       .  S
C1377      C1378   1.408       .  A
C1378      F1379   1.358       .  S
C1383      C1384   1.408       .  A
C1383      C1388   1.407       .  A
C1383      F1390   1.357       .  S
C1384      C1385   1.411       .  A
C1385      C1386   1.395       .  A
C1385      F1392   1.356       .  S
C1386      C1387   1.397       .  A
C1386      F1391   1.355       .  S
C1387      C1388   1.407       .  A
C1388      F1389   1.356       .  S
C1393      C1394   1.404       .  A
C1393      C1398   1.402       .  A
C1393      F1400   1.358       .  S
C1394      C1395   1.414       .  A
C1395      C1396   1.396       .  A
C1395      F1402   1.358       .  S
C1396      C1397   1.401       .  A
C1396      F1401   1.358       .  S
C1397      C1398   1.412       .  A
C1398      F1399   1.358       .  S
C1403      C1404   1.405       .  A
C1403      C1408   1.392       .  A
C1403      F1410   1.356       .  S
C1404      C1405   1.416       .  A
C1405      C1406   1.412       .  A
C1405      F1412   1.357       .  S
C1406      C1407   1.405       .  A
C1406      F1411   1.357       .  S
C1407      C1408   1.403       .  A
C1408      F1409   1.353       .  S
C1413      C1414   1.406       .  A
C1413      C1418   1.398       .  A
C1413      F1420   1.358       .  S
C1414      C1415   1.404       .  A
C1415      C1416   1.393       .  A
C1415      F1422   1.358       .  S
C1416      C1417   1.401       .  A
C1416      F1421   1.354       .  S
C1417      C1418   1.403       .  A
C1418      F1419   1.358       .  S
C1423      C1424   1.406       .  A
C1423      C1428   1.406       .  A
C1423      F1430   1.358       .  S
C1424      C1425   1.400       .  A
C1425      C1426   1.395       .  A
C1425      F1432   1.359       .  S
C1426      C1427   1.406       .  A
C1426      F1431   1.357       .  S
C1427      C1428   1.406       .  A
C1428      F1429   1.358       .  S
C1433      C1434   1.411       .  A
C1433      C1438   1.404       .  A
C1433      F1440   1.358       .  S
C1434      C1435   1.406       .  A
C1435      C1436   1.399       .  A
C1435      F1442   1.358       .  S
C1436      C1437   1.403       .  A
C1436      F1441   1.356       .  S
C1437      C1438   1.402       .  A
C1438      F1439   1.358       .  S
C1443      C1444   1.406       .  A
C1443      C1448   1.404       .  A
C1443      F1450   1.357       .  S
C1444      C1445   1.405       .  A
C1445      C1446   1.403       .  A
C1445      F1452   1.357       .  S
C1446      C1447   1.407       .  A
C1446      F1451   1.358       .  S
C1447      C1448   1.407       .  A
C1448      F1449   1.358       .  S
C1453      C1454   1.406       .  A
C1453      C1458   1.405       .  A
C1453      F1460   1.358       .  S
C1454      C1455   1.404       .  A
C1455      C1456   1.403       .  A
C1455      F1462   1.357       .  S
C1456      C1457   1.409       .  A
C1456      F1461   1.358       .  S
C1457      C1458   1.408       .  A
C1458      F1459   1.358       .  S
C1463      C1464   1.403       .  A
C1463      C1468   1.396       .  A
C1463      F1470   1.356       .  S
C1464      C1465   1.403       .  A
C1465      C1466   1.401       .  A
C1465      F1472   1.358       .  S
C1466      C1467   1.409       .  A
C1466      F1471   1.358       .  S
C1467      C1468   1.405       .  A
C1468      F1469   1.358       .  S
C1473      C1474   1.409       .  A
C1473      C1478   1.412       .  A
C1473      F1480   1.357       .  S
C1474      C1475   1.404       .  A
C1475      C1476   1.398   1_655  A
C1475      F1482   1.358       .  S
C1476      C1477   1.405       .  A
C1476      F1481   1.357       .  S
C1477      C1478   1.408   1_455  A
C1478      F1479   1.357       .  S
C1483      C1484   1.413       .  A
C1483      C1488   1.407       .  A
C1483      F1490   1.357       .  S
C1484      C1485   1.405       .  A
C1485      C1486   1.398       .  A
C1485      F1492   1.357   1_556  S
C1486      C1487   1.403       .  A
C1486      F1491   1.354       .  S
C1487      C1488   1.403       .  A
C1488      F1489   1.357       .  S
C1493      C1494   1.407       .  A
C1493      C1498   1.390       .  A
C1493      F1500   1.358       .  S
C1494      C1495   1.407       .  A
C1495      C1496   1.407       .  A
C1495      F1502   1.356       .  S
C1496      C1497   1.406       .  A
C1496      F1501   1.357       .  S
C1497      C1498   1.400       .  A
C1498      F1499   1.357       .  S
C1503      C1504   1.409       .  A
C1503      C1508   1.399       .  A
C1503      F1510   1.358       .  S
C1504      C1505   1.405       .  A
C1505      C1506   1.401       .  A
C1505      F1512   1.358       .  S
C1506      C1507   1.404       .  A
C1506      F1511   1.357       .  S
C1507      C1508   1.402       .  A
C1508      F1509   1.358       .  S
C1513      C1514   1.408       .  A
C1513      C1518   1.406       .  A
C1513      F1520   1.358       .  S
C1514      C1515   1.399       .  A
C1515      C1516   1.400       .  A
C1515      F1522   1.355       .  S
C1516      C1517   1.410       .  A
C1516      F1521   1.356       .  S
C1517      C1518   1.407       .  A
C1518      F1519   1.358       .  S
C1523      C1524   1.403       .  A
C1523      C1528   1.390       .  A
C1523      F1530   1.355       .  S
C1524      C1525   1.399       .  A
C1525      C1526   1.394       .  A
C1525      F1532   1.356       .  S
C1526      C1527   1.409       .  A
C1526      F1531   1.358       .  S
C1527      C1528   1.403       .  A
C1528      F1529   1.359       .  S
C1533      C1534   1.407       .  A
C1533      C1538   1.398   1_545  A
C1533      F1540   1.356       .  S
C1534      C1535   1.409       .  A
C1535      C1536   1.414   1_545  A
C1535      F1542   1.357       .  S
C1536      C1537   1.410       .  A
C1536      F1541   1.357       .  S
C1537      C1538   1.403       .  A
C1538      F1539   1.359       .  S
C1543      C1544   1.399       .  A
C1543      C1548   1.399       .  A
C1543      F1550   1.356       .  S
C1544      C1545   1.409       .  A
C1545      C1546   1.409       .  A
C1545      F1552   1.357       .  S
C1546      C1547   1.406       .  A
C1546      F1551   1.357       .  S
C1547      C1548   1.410       .  A
C1548      F1549   1.356       .  S
C1553      C1554   1.406       .  A
C1553      C1558   1.405       .  A
C1553      F1560   1.355       .  S
C1554      C1555   1.404       .  A
C1555      C1556   1.389       .  A
C1555      F1562   1.357       .  S
C1556      C1557   1.400       .  A
C1556      F1561   1.357       .  S
C1557      C1558   1.405       .  A
C1558      F1559   1.357       .  S
C1563      C1564   1.410       .  A
C1563      C1568   1.395       .  A
C1563      F1570   1.356       .  S
C1564      C1565   1.407       .  A
C1565      C1566   1.408       .  A
C1565      F1572   1.357       .  S
C1566      C1567   1.408       .  A
C1566      F1571   1.357       .  S
C1567      C1568   1.398       .  A
C1568      F1569   1.356       .  S
C1573      C1574   1.405       .  A
C1573      C1578   1.393       .  A
C1573      F1580   1.357       .  S
C1574      C1575   1.411       .  A
C1575      C1576   1.418       .  A
C1575      F1582   1.357       .  S
C1576      C1577   1.412       .  A
C1576      F1581   1.357       .  S
C1577      C1578   1.406       .  A
C1578      F1579   1.359       .  S
C1583      C1584   1.404       .  A
C1583      C1588   1.395       .  A
C1583      F1590   1.356       .  S
C1584      C1585   1.405       .  A
C1585      C1586   1.403       .  A
C1585      F1592   1.358       .  S
C1586      C1587   1.404       .  A
C1586      F1591   1.357       .  S
C1587      C1588   1.401       .  A
C1588      F1589   1.358       .  S
C1593      C1594   1.411       .  A
C1593      C1598   1.399       .  A
C1593      F1600   1.358       .  S
C1594      C1595   1.405       .  A
C1595      C1596   1.393       .  A
C1595      F1602   1.358       .  S
C1596      C1597   1.403       .  A
C1596      F1601   1.355       .  S
C1597      C1598   1.401       .  A
C1598      F1599   1.357       .  S
C1603      C1604   1.410       .  A
C1603      C1608   1.407       .  A
C1603      F1610   1.356       .  S
C1604      C1605   1.405       .  A
C1605      C1606   1.395       .  A
C1605      F1612   1.355   1_556  S
C1606      C1607   1.402       .  A
C1606      F1611   1.357   1_556  S
C1607      C1608   1.405       .  A
C1608      F1609   1.358       .  S
C1613      C1614   1.404       .  A
C1613      C1618   1.397       .  A
C1613      F1620   1.353       .  S
C1614      C1615   1.412       .  A
C1615      C1616   1.408       .  A
C1615      F1622   1.357       .  S
C1616      C1617   1.404       .  A
C1616      F1621   1.357       .  S
C1617      C1618   1.403       .  A
C1618      F1619   1.355       .  S
C1623      C1624   1.409       .  A
C1623      C1628   1.406       .  A
C1623      F1630   1.358       .  S
C1624      C1625   1.409       .  A
C1625      C1626   1.403       .  A
C1625      F1632   1.358       .  S
C1626      C1627   1.404       .  A
C1626      F1631   1.356       .  S
C1627      C1628   1.406       .  A
C1628      F1629   1.357       .  S
C1633      C1634   1.410       .  A
C1633      C1638   1.396       .  A
C1633      F1640   1.358       .  S
C1634      C1635   1.401       .  A
C1635      C1636   1.397       .  A
C1635      F1642   1.358       .  S
C1636      C1637   1.413       .  A
C1636      F1641   1.358       .  S
C1637      C1638   1.404       .  A
C1638      F1639   1.358       .  S
C1643      C1644   1.407       .  A
C1643      C1648   1.403   1_655  A
C1643      F1650   1.358       .  S
C1644      C1645   1.406       .  A
C1645      C1646   1.401       .  A
C1645      F1652   1.358       .  S
C1646      C1647   1.405   1_655  A
C1646      F1651   1.357       .  S
C1647      C1648   1.406       .  A
C1648      F1649   1.358       .  S
C1653      C1654   1.414       .  A
C1653      C1658   1.403       .  A
C1653      F1660   1.358       .  S
C1654      C1655   1.404       .  A
C1655      C1656   1.396       .  A
C1655      F1662   1.358       .  S
C1656      C1657   1.414       .  A
C1656      F1661   1.358       .  S
C1657      C1658   1.406       .  A
C1658      F1659   1.358       .  S
C1663      C1664   1.406       .  A
C1663      C1668   1.400       .  A
C1663      F1670   1.359       .  S
C1664      C1665   1.409       .  A
C1665      C1666   1.413       .  A
C1665      F1672   1.357       .  S
C1666      C1667   1.408       .  A
C1666      F1671   1.357       .  S
C1667      C1668   1.405       .  A
C1668      F1669   1.357       .  S
C1673      C1674   1.404       .  A
C1673      C1678   1.396       .  A
C1673      F1680   1.358       .  S
C1674      C1675   1.412       .  A
C1675      C1676   1.398       .  A
C1675      F1682   1.358       .  S
C1676      C1677   1.402       .  A
C1676      F1681   1.358       .  S
C1677      C1678   1.410       .  A
C1678      F1679   1.358       .  S
C1683      C1684   1.412       .  A
C1683      C1688   1.404       .  A
C1683      F1690   1.358       .  S
C1684      C1685   1.404       .  A
C1685      C1686   1.400       .  A
C1685      F1692   1.358       .  S
C1686      C1687   1.403       .  A
C1686      F1691   1.354       .  S
C1687      C1688   1.402       .  A
C1688      F1689   1.358       .  S
C1693      C1694   1.405       .  A
C1693      C1698   1.396       .  A
C1693      F1700   1.358       .  S
C1694      C1695   1.410       .  A
C1695      C1696   1.401       .  A
C1695      F1702   1.358       .  S
C1696      C1697   1.401       .  A
C1696      F1701   1.358       .  S
C1697      C1698   1.403       .  A
C1698      F1699   1.356       .  S
C1703      C1704   1.405       .  A
C1703      C1708   1.405       .  A
C1703      F1710   1.358       .  S
C1704      C1705   1.407       .  A
C1705      C1706   1.403       .  A
C1705      F1712   1.358       .  S
C1706      C1707   1.406       .  A
C1706      F1711   1.358       .  S
C1707      C1708   1.410       .  A
C1708      F1709   1.358       .  S
C1713      C1714   1.404       .  A
C1713      C1718   1.398       .  A
C1713      F1720   1.358       .  S
C1714      C1715   1.406       .  A
C1715      C1716   1.410       .  A
C1715      F1722   1.357       .  S
C1716      C1717   1.409       .  A
C1716      F1721   1.358       .  S
C1717      C1718   1.405       .  A
C1718      F1719   1.358       .  S
C1723      C1724   1.417       .  A
C1723      C1728   1.396       .  A
C1723      F1730   1.358       .  S
C1724      C1725   1.405       .  A
C1725      C1726   1.400       .  A
C1725      F1732   1.358       .  S
C1726      C1727   1.414       .  A
C1726      F1731   1.358       .  S
C1727      C1728   1.402       .  A
C1728      F1729   1.358       .  S
C1733      C1734   1.405       .  A
C1733      C1738   1.394       .  A
C1733      F1740   1.358       .  S
C1734      C1735   1.409       .  A
C1735      C1736   1.398       .  A
C1735      F1742   1.358       .  S
C1736      C1737   1.402       .  A
C1736      F1741   1.357       .  S
C1737      C1738   1.403       .  A
C1738      F1739   1.355       .  S
C1743      C1744   1.399       .  A
C1743      C1748   1.385       .  A
C1743      F1750   1.358       .  S
C1744      C1745   1.406       .  A
C1745      C1746   1.406       .  A
C1745      F1752   1.357       .  S
C1746      C1747   1.406       .  A
C1746      F1751   1.357       .  S
C1747      C1748   1.406       .  A
C1748      F1749   1.357       .  S
C1753      C1754   1.408       .  A
C1753      C1758   1.407       .  A
C1753      F1760   1.357       .  S
C1754      C1755   1.409       .  A
C1755      C1756   1.393       .  A
C1755      F1762   1.354       .  S
C1756      C1757   1.396       .  A
C1756      F1761   1.354       .  S
C1757      C1758   1.407       .  A
C1758      F1759   1.358       .  S
C1763      C1764   1.406       .  A
C1763      C1768   1.399       .  A
C1763      F1770   1.358       .  S
C1764      C1765   1.414       .  A
C1765      C1766   1.400       .  A
C1765      F1772   1.358       .  S
C1766      C1767   1.408       .  A
C1766      F1771   1.358       .  S
C1767      C1768   1.414       .  A
C1768      F1769   1.358       .  S
C1773      C1774   1.405       .  A
C1773      C1778   1.403       .  A
C1773      F1780   1.357       .  S
C1774      C1775   1.405       .  A
C1775      C1776   1.397       .  A
C1775      F1782   1.357       .  S
C1776      C1777   1.402       .  A
C1776      F1781   1.358       .  S
C1777      C1778   1.404       .  A
C1778      F1779   1.358       .  S
C1783      C1784   1.404       .  A
C1783      C1788   1.405       .  A
C1783      F1790   1.357       .  S
C1784      C1785   1.410       .  A
C1785      C1786   1.399       .  A
C1785      F1792   1.355       .  S
C1786      C1787   1.399       .  A
C1786      F1791   1.357       .  S
C1787      C1788   1.408       .  A
C1788      F1789   1.358       .  S
C1793      C1794   1.411       .  A
C1793      C1798   1.397       .  A
C1793      F1800   1.358       .  S
C1794      C1795   1.407       .  A
C1795      C1796   1.408       .  A
C1795      F1802   1.357       .  S
C1796      C1797   1.408       .  A
C1796      F1801   1.357       .  S
C1797      C1798   1.398       .  A
C1798      F1799   1.354       .  S
C1803      C1804   1.407       .  A
C1803      C1808   1.395       .  A
C1803      F1810   1.356       .  S
C1804      C1805   1.409       .  A
C1805      C1806   1.415       .  A
C1805      F1812   1.357       .  S
C1806      C1807   1.412       .  A
C1806      F1811   1.357       .  S
C1807      C1808   1.404       .  A
C1808      F1809   1.359       .  S
C1813      C1814   1.400       .  A
C1813      C1818   1.398       .  A
C1813      F1820   1.358       .  S
C1814      C1815   1.411       .  A
C1815      C1816   1.394       .  A
C1815      F1822   1.357       .  S
C1816      C1817   1.402       .  A
C1816      F1821   1.358       .  S
C1817      C1818   1.415       .  A
C1818      F1819   1.358       .  S
C1823      C1824   1.405       .  A
C1823      C1828   1.398       .  A
C1823      F1830   1.357       .  S
C1824      C1825   1.409       .  A
C1825      C1826   1.404       .  A
C1825      F1832   1.357       .  S
C1826      C1827   1.404       .  A
C1826      F1831   1.358       .  S
C1827      C1828   1.405       .  A
C1828      F1829   1.358       .  S
C1833      C1834   1.409       .  A
C1833      C1838   1.392       .  A
C1833      F1840   1.359       .  S
C1834      C1835   1.413       .  A
C1835      C1836   1.397       .  A
C1835      F1842   1.358       .  S
C1836      C1837   1.398       .  A
C1836      F1841   1.355       .  S
C1837      C1838   1.402       .  A
C1838      F1839   1.358       .  S
C1843      C1844   1.404       .  A
C1843      C1848   1.397       .  A
C1843      F1850   1.356       .  S
C1844      C1845   1.407       .  A
C1845      C1846   1.403       .  A
C1845      F1852   1.358       .  S
C1846      C1847   1.404       .  A
C1846      F1851   1.358       .  S
C1847      C1848   1.402       .  A
C1848      F1849   1.357       .  S
C1853      C1854   1.403       .  A
C1853      C1858   1.406       .  A
C1853      F1860   1.357       .  S
C1854      C1855   1.403       .  A
C1855      C1856   1.394       .  A
C1855      F1862   1.357       .  S
C1856      C1857   1.405       .  A
C1856      F1861   1.354       .  S
C1857      C1858   1.411       .  A
C1858      F1859   1.357       .  S
C1863      C1864   1.402       .  A
C1863      C1868   1.399   1_565  A
C1863      F1870   1.358       .  S
C1864      C1865   1.405       .  A
C1865      C1866   1.401   1_565  A
C1865      F1872   1.358       .  S
C1866      C1867   1.406       .  A
C1866      F1871   1.358       .  S
C1867      C1868   1.408       .  A
C1868      F1869   1.358       .  S
