geometry optimzed in LAMMPS
_audit_creation_date              2020-12-01 
_audit_creation_method            'lammps2cif' 
_symmetry_space_group_name_H-M    'P1' 
_symmetry_Int_Tables_number       1 
_symmetry_cell_setting            triclinic 
loop_ 
_symmetry_equiv_pos_as_xyz 
  x,y,z 
_cell_length_a                    28.23110743 
_cell_length_b                    28.27363627727851 
_cell_length_c                    44.44624948112159 
_cell_angle_alpha                 89.65967056149475 
_cell_angle_beta                  90.17445489677311 
_cell_angle_gamma                 90.17495109381488 
loop_ 
_atom_site_label 
_atom_site_type_symbol 
_atom_site_fract_x 
_atom_site_fract_y 
_atom_site_fract_z 
_atom_site_charge 
O1          O  0.02388639  0.00664481  0.70635361    -0.82400
C2          C  0.11836190  0.14602056  0.64008630     0.97000
O3          O  0.12758930  0.10220520  0.63882656    -0.71500
O4          O  0.14752221  0.05560763  0.68746596    -0.75100
Al5        Al  0.10010791  0.04731586  0.65729889     1.49000
C6          C  0.14426016  0.04729412  0.71515559     0.92200
O7          O  0.06165541  0.13004481  0.72720546    -0.81300
O8          O  0.96286316  0.09221313  0.66607096    -0.74900
Al9        Al  0.04353233  0.06811287  0.71527361     1.90100
O10         O  0.01750622  0.16488634  0.69263715    -0.73900
O11         O  0.02141224  0.09811821  0.61855339    -0.73800
O12         O  0.07812103  0.16046890  0.64851678    -0.79400
O13         O  0.06195191  0.03316983  0.62294635    -0.77600
O14         O  0.05593116  0.08014034  0.67654185    -1.13800
O15         O  0.07908843  0.98711491  0.67354101    -0.73000
C16         C  0.04477772  0.97611905  0.69071182     0.97800
C17         C  0.04096366  0.16639238  0.71698879     0.94100
Al18       Al  0.02252588  0.12516077  0.65788960     1.55600
O19         O  0.10433176  0.04619121  0.72737162    -0.77600
C20         C  0.03613118  0.06013618  0.60741366     0.98300
C21         C  0.95025858  0.08064215  0.69251602     0.93200
O22         O  0.97896279  0.08559458  0.71396484    -0.82900
O23         O  0.45894067  0.51362066  0.71889623    -0.82400
C24         C  0.38349283  0.38174810  0.64104391     0.97000
O25         O  0.37557443  0.42616448  0.63913625    -0.71500
O26         O  0.35102725  0.47770441  0.68505863    -0.75100
Al27       Al  0.40314187  0.48062705  0.65910803     1.49000
C28         C  0.34609058  0.47307166  0.71289077     0.92200
O29         O  0.43188002  0.38356189  0.72809887    -0.81300
O30         O  0.53441037  0.43295933  0.67389026    -0.74900
Al31       Al  0.44527631  0.44885740  0.72075698     1.90100
O32         O  0.48468916  0.35824915  0.69651537    -0.73900
O33         O  0.48130967  0.42697255  0.62322767    -0.73800
O34         O  0.42233860  0.36582468  0.65147362    -0.79400
O35         O  0.44614384  0.49413488  0.62785254    -0.77600
O36         O  0.44142888  0.44372212  0.68082134    -1.13800
O37         O  0.42579158  0.53876599  0.67691707    -0.73000
C38         C  0.44926584  0.54667031  0.70076809     0.97800
C39         C  0.46112769  0.35259503  0.72027059     0.94100
Al40       Al  0.47732917  0.39999780  0.66273225     1.55600
O41         O  0.38045171  0.46068628  0.72897990    -0.77600
C42         C  0.47021018  0.46643332  0.61241962     0.98300
C43         C  0.54375220  0.44282764  0.70118161     0.93200
O44         O  0.51208008  0.43981527  0.72129066    -0.82900
O45         O  0.48771759  0.52506370  0.29895637    -0.82400
C46         C  0.63499509  0.61607880  0.36109826     0.97000
O47         O  0.59136012  0.62521588  0.36428629    -0.71500
O48         O  0.54994199  0.64538940  0.31351778    -0.75100
Al49       Al  0.53562734  0.60131588  0.34435376     1.49000
C50         C  0.54011198  0.64134764  0.28603917     0.92200
O51         O  0.61350699  0.54945493  0.27430703    -0.81300
O52         O  0.57704721  0.46338161  0.34193901    -0.74900
Al53       Al  0.55077903  0.53841059  0.28860628     1.90100
O54         O  0.64848705  0.50899303  0.31036365    -0.73900
O55         O  0.58422868  0.52680846  0.38506869    -0.73800
O56         O  0.64813569  0.57669017  0.35083477    -0.79400
O57         O  0.51734351  0.56405338  0.37821837    -0.77600
O58         O  0.56559078  0.55401893  0.32624584    -1.13800
O59         O  0.47378236  0.58701511  0.32729197    -0.73000
C60         C  0.45917376  0.55216687  0.31198712     0.97800
C61         C  0.64878011  0.52671137  0.28415288     0.94100
Al62       Al  0.61068479  0.52176077  0.34555375     1.55600
O63         O  0.53446891  0.60093929  0.27469124    -0.77600
C64         C  0.54450717  0.53999363  0.39481147     0.98300
C65         C  0.56571794  0.44632015  0.31675913     0.93200
O66         O  0.56236250  0.47231701  0.29364645    -0.82900
O67         O  0.01952747  0.92877549  0.28919463    -0.82400
C68         C  0.88407720  0.86929045  0.36381135     0.97000
O69         O  0.92508365  0.85575727  0.35613735    -0.71500
O70         O  0.99289816  0.84918856  0.31568664    -0.75100
Al71       Al  0.97844601  0.89335411  0.34690401     1.49000
C72         C  0.97172043  0.83968219  0.29142025     0.92200
O73         O  0.89000863  0.94347425  0.27229712    -0.81300
O74         O  0.91641117  0.02549287  0.32150304    -0.74900
Al75       Al  0.95289789  0.93499274  0.28529455     1.90100
O76         O  0.85014475  0.95359726  0.31352361    -0.73900
O77         O  0.93661977  0.98925665  0.37473185    -0.73800
O78         O  0.87322113  0.91312776  0.36420419    -0.79400
O79         O  0.97432221  0.92452723  0.38465637    -0.77600
O80         O  0.94254647  0.93243866  0.32479601    -1.13800
O81         O  0.03399397  0.93032724  0.33796552    -0.73000
C82         C  0.04629862  0.93927351  0.31104910     0.97800
C83         C  0.85138053  0.94904627  0.28546795     0.94100
Al84       Al  0.89800103  0.96732000  0.34210469     1.55600
O85         O  0.94321208  0.86905257  0.28022159    -0.77600
C86         C  0.96105997  0.96484448  0.39258793     0.98300
C87         C  0.94486803  0.03339787  0.29991545     0.93200
O88         O  0.96320796  0.99982616  0.28564798    -0.82900
O89         O  0.97238274  0.51559302  0.78671821    -0.82400
C90         C  0.88163265  0.63746015  0.86561416     0.97000
O91         O  0.87540505  0.59271334  0.86589826    -0.71500
O92         O  0.85545210  0.54735537  0.81702482    -0.75100
Al93       Al  0.90603626  0.54154207  0.84428811     1.49000
C94         C  0.85398302  0.54977672  0.78892335     0.92200
O95         O  0.93276935  0.64191950  0.77922442    -0.81300
O96         O  0.03698581  0.59703404  0.83414084    -0.74900
Al97       Al  0.95253142  0.57825707  0.78516425     1.90100
O98         O  0.98183761  0.67002263  0.81284233    -0.73900
O99         O  0.98178656  0.59417112  0.88315300    -0.73800
O100        O  0.92044631  0.65548663  0.85678952    -0.79400
O101        O  0.94792595  0.52629708  0.87636963    -0.77600
O102        O  0.94493755  0.58109363  0.82502492    -1.13800
O103        O  0.93102590  0.48581784  0.82439730    -0.73000
C104        C  0.95911574  0.48066331  0.80230456     0.97800
C105        C  0.95847631  0.67498685  0.78880823     0.94100
Al106      Al  0.97734620  0.62524836  0.84519805     1.55600
O107        O  0.89054840  0.55947903  0.77430006    -0.77600
C108        C  0.97173075  0.55354352  0.89263321     0.98300
C109        C  0.04880018  0.59254405  0.80674987     0.93200
O110        O  0.01806369  0.59491530  0.78603898    -0.82900
O111        O  0.52520951  0.02194749  0.79946627    -0.82400
C112        C  0.61698585  0.87429045  0.86140896     0.97000
O113        O  0.62742484  0.91784031  0.86348559    -0.71500
O114        O  0.64784502  0.96776145  0.81604201    -0.75100
Al115      Al  0.60117763  0.97481173  0.84643193     1.49000
C116        C  0.64465864  0.97887439  0.78871526     0.92200
O117        O  0.55856352  0.89956931  0.77329021    -0.81300
O118        O  0.46241775  0.93200776  0.83605624    -0.74900
Al119      Al  0.54296794  0.96078227  0.78795165     1.90100
O120        O  0.51590766  0.86184284  0.80738062    -0.73900
O121        O  0.52024399  0.92349858  0.88288702    -0.73800
O122        O  0.57647039  0.86151243  0.85212491    -0.79400
O123        O  0.56345484  0.98728802  0.88081094    -0.77600
O124        O  0.55574380  0.94460890  0.82610952    -1.13800
O125        O  0.58215983  0.03698545  0.83222544    -0.73000
C126        C  0.54759695  0.05050148  0.81594954     0.97800
C127        C  0.53759523  0.86260473  0.78248743     0.94100
Al128      Al  0.52154443  0.89855028  0.84324876     1.55600
O129        O  0.60459235  0.98213912  0.77659008    -0.77600
C130        C  0.53543778  0.96069591  0.89493949     0.98300
C131        C  0.44945651  0.94653365  0.81031931     0.93200
O132        O  0.47789821  0.94509049  0.78866027    -0.82900
O133        O  0.99177387  0.46724575  0.20774109    -0.82400
C134        C  0.13254689  0.37686557  0.14084937     0.97000
O135        O  0.08840052  0.36844740  0.13780951    -0.71500
O136        O  0.04000223  0.34899708  0.18574857    -0.75100
Al137      Al  0.03255239  0.39626683  0.15633310     1.49000
C138        C  0.03616385  0.35049876  0.21380841     0.92200
O139        O  0.11915046  0.43888505  0.22704008    -0.81300
O140        O  0.07971308  0.53065781  0.16290203    -0.74900
Al141      Al  0.05522363  0.45195974  0.21492558     1.90100
O142        O  0.15060201  0.48331049  0.19195071    -0.73900
O143        O  0.08679064  0.47041589  0.11778499    -0.73800
O144        O  0.14700926  0.41627018  0.15078416    -0.79400
O145        O  0.01849088  0.43570345  0.12251531    -0.77600
O146        O  0.06620132  0.43969757  0.17615652    -1.13800
O147        O  0.97166786  0.41642984  0.17259573    -0.73000
C148        C  0.96056656  0.44769520  0.19176994     0.97800
C149        C  0.15258955  0.46489630  0.21780659     0.94100
Al150      Al  0.11199041  0.47205168  0.15734784     1.55600
O151        O  0.03852975  0.38931597  0.22735054    -0.77600
C152        C  0.04704763  0.45976670  0.10709451     0.98300
C153        C  0.06991919  0.54553247  0.18893495     0.93200
O154        O  0.06762422  0.51782214  0.21129416    -0.82900
O155        O  0.51786541  0.06145624  0.21696501    -0.82400
C156        C  0.38185111  0.12468228  0.14218112     0.97000
O157        O  0.42243375  0.13853081  0.15106159    -0.71500
O158        O  0.48925085  0.14304484  0.19335404    -0.75100
Al159      Al  0.47687660  0.10176743  0.16021568     1.49000
C160        C  0.46937895  0.14875978  0.21845139     0.92200
O161        O  0.38873620  0.04174945  0.23139489    -0.81300
O162        O  0.41784094  0.96526528  0.17882906    -0.74900
Al163      Al  0.45146456  0.05294360  0.21965637     1.90100
O164        O  0.34922046  0.03413257  0.18965280    -0.73900
O165        O  0.43653503  0.00845984  0.12796365    -0.73800
O166        O  0.37135050  0.08076801  0.14113868    -0.79400
O167        O  0.47492464  0.07406230  0.12153703    -0.77600
O168        O  0.44136731  0.05961598  0.18021903    -1.13800
O169        O  0.53380655  0.06586595  0.16862267    -0.73000
C170        C  0.54588280  0.05471071  0.19530977     0.97800
C171        C  0.35029092  0.03665944  0.21777852     0.94100
Al172      Al  0.39761301  0.02522733  0.16102016     1.55600
O173        O  0.44081797  0.11799907  0.22808901    -0.77600
C174        C  0.46160816  0.03478951  0.11172832     0.98300
C175        C  0.44706897  0.95609964  0.19987706     0.93200
O176        O  0.46333304  0.98859985  0.21618354    -0.82900
C177        C  0.16837884  0.33997980  0.13378434    -0.01900
C178        C  0.21611439  0.35290328  0.13067829    -0.09900
C179        C  0.25150749  0.31882125  0.12794652    -0.18700
C180        C  0.24063025  0.26997903  0.12868966     0.03700
C181        C  0.19205553  0.25677914  0.13083709     0.17900
C182        C  0.15648273  0.29168221  0.13300126    -0.20100
C183        C  0.17952360  0.20880486  0.13199356    -0.21400
C184        C  0.21419529  0.17375716  0.13230804    -0.19900
C185        C  0.26240464  0.18564375  0.13124546     0.19300
C186        C  0.27626447  0.23390446  0.12864654     0.01400
C187        C  0.32532467  0.24399649  0.12718284    -0.14700
C188        C  0.35907093  0.20822305  0.13020131    -0.12400
C189        C  0.34550585  0.16090753  0.13432809     0.00900
C190        C  0.29690977  0.14973344  0.13387116    -0.24600
H191        H  0.22645499  0.38982836  0.13101570     0.08900
H192        H  0.28722855  0.33198382  0.12616561     0.12500
H193        H  0.11976406  0.28111142  0.13560177     0.11200
H194        H  0.14264309  0.19831644  0.13348557     0.12400
H195        H  0.20322025  0.13707929  0.13405086     0.11400
H196        H  0.33893123  0.27937357  0.12441792     0.08500
H197        H  0.39621319  0.21795552  0.13004977     0.11800
H198        H  0.28579646  0.11330607  0.13704245     0.13600
C199        C  0.52146719  0.97212358  0.92630478    -0.01900
C200        C  0.49083272  0.94207147  0.94231025    -0.09900
C201        C  0.48035681  0.95034142  0.97255013    -0.18700
C202        C  0.50036331  0.98918927  0.98801344     0.03700
C203        C  0.53019291  0.02045987  0.97144238     0.17900
C204        C  0.54044431  0.01169510  0.94101349    -0.20100
C205        C  0.55000119  0.06014126  0.98539771    -0.21400
C206        C  0.54080803  0.06958741  0.01547631    -0.19900
C207        C  0.51201330  0.03929893  0.03251507     0.19300
C208        C  0.49175778  0.99832966  0.01919566     0.01400
C209        C  0.46399014  0.96833794  0.03775533    -0.14700
C210        C  0.45542846  0.97948116  0.06788367    -0.12400
C211        C  0.47417122  0.02074916  0.08060594     0.00900
C212        C  0.50303575  0.05009537  0.06279374    -0.24600
H213        H  0.47530016  0.91143614  0.93153523     0.08900
H214        H  0.45655537  0.92559105  0.98320618     0.12500
H215        H  0.56396752  0.03541931  0.92890614     0.11200
H216        H  0.57268982  0.08417917  0.97291971     0.12400
H217        H  0.55645831  0.10081411  0.02551474     0.11400
H218        H  0.44824267  0.93606834  0.02964194     0.08500
H219        H  0.43324283  0.95602649  0.08112097     0.11800
H220        H  0.51809714  0.08197686  0.07237828     0.13600
C221        C  0.03498709  0.47536145  0.07609884    -0.01900
C222        C  0.05719576  0.51534178  0.06372176    -0.09900
C223        C  0.04832533  0.52939714  0.03405045    -0.18700
C224        C  0.01729240  0.50326337  0.01537355     0.03700
C225        C  0.99497762  0.46254598  0.02799255     0.17900
C226        C  0.00347672  0.44938826  0.05816606    -0.20100
C227        C  0.96475652  0.43483490  0.01030173    -0.21400
C228        C  0.95612528  0.44660542  0.98033769    -0.19900
C229        C  0.97711456  0.48667596  0.96729146     0.19300
C230        C  0.00785028  0.51577613  0.98463376     0.01400
C231        C  0.02749463  0.55623714  0.97044855    -0.14700
C232        C  0.01663706  0.56751252  0.94054150    -0.12400
C233        C  0.98619115  0.53887177  0.92352415     0.00900
C234        C  0.96695894  0.49815230  0.93706278    -0.24600
H235        H  0.08170053  0.53601291  0.07712361     0.08900
H236        H  0.06685020  0.56050598  0.02631119     0.12500
H237        H  0.98660150  0.41805653  0.06744308     0.11200
H238        H  0.94779158  0.40364991  0.01967733     0.12400
H239        H  0.93258879  0.42429473  0.96730008     0.11400
H240        H  0.05085817  0.58033243  0.98195674     0.08500
H241        H  0.03183346  0.59929729  0.93079524     0.11800
H242        H  0.94294076  0.47592771  0.92429981     0.13600
C243        C  0.84193372  0.66980033  0.87362127    -0.01900
C244        C  0.79514645  0.65309643  0.87542726    -0.09900
C245        C  0.75689106  0.68459431  0.87715862    -0.18700
C246        C  0.76415979  0.73421184  0.87699565     0.03700
C247        C  0.81178228  0.75077512  0.87729758     0.17900
C248        C  0.84981195  0.71877536  0.87565190    -0.20100
C249        C  0.82129329  0.79937270  0.87803980    -0.21400
C250        C  0.78461555  0.83208523  0.87735581    -0.19900
C251        C  0.73736993  0.81717426  0.87550056     0.19300
C252        C  0.72625534  0.76804690  0.87557870     0.01400
C253        C  0.67788682  0.75519614  0.87292319    -0.14700
C254        C  0.64249965  0.78955799  0.86924689    -0.12400
C255        C  0.65375041  0.83795984  0.86861018     0.00900
C256        C  0.70136170  0.85130581  0.87245918    -0.24600
H257        H  0.78781986  0.61553917  0.87409168     0.08900
H258        H  0.72196639  0.66912056  0.87784007     0.12500
H259        H  0.88574134  0.73234960  0.87463372     0.11200
H260        H  0.85748569  0.81225736  0.87855079     0.12400
H261        H  0.79338102  0.86943615  0.87741208     0.11400
H262        H  0.66646025  0.71879089  0.87269141     0.08500
H263        H  0.60616396  0.77803701  0.86629813     0.11800
H264        H  0.71084607  0.88849016  0.87178839     0.13600
C265        C  0.95772189  0.08201757  0.29002141    -0.01900
C266        C  0.94208347  0.12263292  0.30485956    -0.09900
C267        C  0.95533976  0.16783655  0.29449068    -0.18700
C268        C  0.98474893  0.17357185  0.26886224     0.03700
C269        C  0.00039301  0.13202434  0.25415590     0.17900
C270        C  0.98681936  0.08742366  0.26467353    -0.20100
C271        C  0.02952557  0.13485571  0.22882099    -0.21400
C272        C  0.04338862  0.17833639  0.21739418    -0.19900
C273        C  0.02832799  0.22006275  0.23095925     0.19300
C274        C  0.99906409  0.21862085  0.25700211     0.01400
C275        C  0.98523279  0.26231835  0.26961506    -0.14700
C276        C  0.99911232  0.30535584  0.25645270    -0.12400
C277        C  0.02683329  0.30605514  0.23034567     0.00900
C278        C  0.04175632  0.26329023  0.21805379    -0.24600
H279        H  0.91964030  0.11949352  0.32449096     0.08900
H280        H  0.94206746  0.19758818  0.30691817     0.12500
H281        H  0.99910537  0.05653945  0.25268825     0.11200
H282        H  0.04149489  0.10313895  0.21761253     0.12400
H283        H  0.06573065  0.17932574  0.19759858     0.11400
H284        H  0.96315886  0.26429633  0.28931104     0.08500
H285        H  0.98667557  0.33814704  0.26607987     0.11800
H286        H  0.06328809  0.26365566  0.19786399     0.13600
C287        C  0.98393110  0.79621483  0.27504689    -0.01900
C288        C  0.95725565  0.78125836  0.25024841    -0.09900
C289        C  0.97178873  0.74258685  0.23318726    -0.18700
C290        C  0.01407631  0.71811203  0.24026289     0.03700
C291        C  0.04068885  0.73347725  0.26563833     0.17900
C292        C  0.02520935  0.77167081  0.28281257    -0.20100
C293        C  0.08300024  0.71107344  0.27364264    -0.21400
C294        C  0.09937146  0.67307501  0.25719470    -0.19900
C295        C  0.07358811  0.65641371  0.23253592     0.19300
C296        C  0.03079853  0.67876532  0.22338847     0.01400
C297        C  0.00612919  0.65971914  0.19836775    -0.14700
C298        C  0.02166839  0.61824644  0.18456176    -0.12400
C299        C  0.06234595  0.59549263  0.19502713     0.00900
C300        C  0.08911131  0.61568723  0.21806065    -0.24600
H301        H  0.92528240  0.79986286  0.24379047     0.08900
H302        H  0.94954551  0.73315322  0.21440824     0.12500
H303        H  0.04638900  0.78328065  0.30180276     0.11200
H304        H  0.10348053  0.72288529  0.29286852     0.12400
H305        H  0.13196650  0.65598693  0.26418050     0.11400
H306        H  0.97366669  0.67471779  0.18987653     0.08500
H307        H  0.00007721  0.60213789  0.16719900     0.11800
H308        H  0.12020961  0.59726288  0.22638906     0.13600
C309        C  0.09123560  0.96277451  0.30340265    -0.01900
C310        C  0.13269066  0.95645830  0.32011860    -0.09900
C311        C  0.17590095  0.97376350  0.30908798    -0.18700
C312        C  0.17839788  0.99758883  0.28089411     0.03700
C313        C  0.13536377  0.00646956  0.26532888     0.17900
C314        C  0.09266446  0.98963299  0.27683080    -0.20100
C315        C  0.13515922  0.03008909  0.23758558    -0.21400
C316        C  0.17734452  0.04288794  0.22390923    -0.19900
C317        C  0.22057907  0.03258037  0.23779104     0.19300
C318        C  0.22183526  0.01111414  0.26688709     0.01400
C319        C  0.26658122  0.00249521  0.28006228    -0.14700
C320        C  0.30813169  0.01266578  0.26442105    -0.12400
C321        C  0.30642823  0.03140688  0.23520327     0.00900
C322        C  0.26263590  0.04222595  0.22225038    -0.24600
H323        H  0.13205086  0.93635888  0.34093506     0.08900
H324        H  0.20681129  0.96656492  0.32260724     0.12500
H325        H  0.06033128  0.99569612  0.26416529     0.11200
H326        H  0.10218615  0.03721523  0.22587941     0.12400
H327        H  0.17617518  0.05980337  0.20196562     0.11400
H328        H  0.27067484  0.98705437  0.30212943     0.08500
H329        H  0.34180511  0.00413151  0.27484391     0.11800
H330        H  0.26128873  0.05731825  0.19976119     0.13600
C331        C  0.59173738  0.03246913  0.20308407    -0.01900
C332        C  0.63263300  0.03685583  0.18557511    -0.09900
C333        C  0.67586650  0.01812808  0.19599584    -0.18700
C334        C  0.67895656  0.99446222  0.22426032     0.03700
C335        C  0.63662435  0.98872338  0.24099614     0.17900
C336        C  0.59415693  0.00721103  0.23028019    -0.20100
C337        C  0.63680617  0.96615063  0.26906809    -0.21400
C338        C  0.67878917  0.95069006  0.28176368    -0.19900
C339        C  0.72154216  0.95740469  0.26664946     0.19300
C340        C  0.72235585  0.97799009  0.23728695     0.01400
C341        C  0.76675301  0.98259068  0.22294023    -0.14700
C342        C  0.80859449  0.97034913  0.23800833    -0.12400
C343        C  0.80738968  0.95337782  0.26772679     0.00900
C344        C  0.76369687  0.94548423  0.28145783    -0.24600
H345        H  0.63153300  0.05593975  0.16438875     0.08900
H346        H  0.70639990  0.02367215  0.18188881     0.12500
H347        H  0.56268723  0.00301450  0.24396823     0.11200
H348        H  0.60437468  0.96184998  0.28179888     0.12400
H349        H  0.67795253  0.93460019  0.30395900     0.11400
H350        H  0.77029206  0.99670007  0.20047014     0.08500
H351        H  0.84216668  0.97645455  0.22687894     0.11800
H352        H  0.76258565  0.93166102  0.30427538     0.13600
C353        C  0.67087797  0.65279751  0.36821247    -0.01900
C354        C  0.65694773  0.69959935  0.37329782    -0.09900
C355        C  0.69052772  0.73573052  0.37604407    -0.18700
C356        C  0.73954481  0.72623829  0.37369597     0.03700
C357        C  0.75356929  0.67832417  0.37004603     0.17900
C358        C  0.71938750  0.64229942  0.36741093    -0.20100
C359        C  0.80161685  0.66677809  0.36807177    -0.21400
C360        C  0.83609975  0.70196563  0.36859205    -0.19900
C361        C  0.82342722  0.74962863  0.37101440     0.19300
C362        C  0.77504483  0.76252825  0.37400021     0.01400
C363        C  0.76434416  0.81128544  0.37615283    -0.14700
C364        C  0.79995462  0.84568422  0.37430606    -0.12400
C365        C  0.84745302  0.83286276  0.37048722     0.00900
C366        C  0.85888580  0.78456647  0.36948717    -0.24600
H367        H  0.61974513  0.70875162  0.37413750     0.08900
H368        H  0.67689618  0.77084115  0.37939440     0.12500
H369        H  0.73065757  0.60616002  0.36374617     0.11200
H370        H  0.81258527  0.63031818  0.36551696     0.12400
H371        H  0.87293913  0.69187696  0.36644098     0.11400
H372        H  0.72866642  0.82411431  0.37848670     0.08500
H373        H  0.78993781  0.88261810  0.37487572     0.11800
H374        H  0.89542677  0.77400334  0.36636463     0.13600
C375        C  0.53267711  0.68456077  0.26769544    -0.01900
C376        C  0.50128377  0.68464745  0.24317648    -0.09900
C377        C  0.48887570  0.72708883  0.22871731    -0.18700
C378        C  0.50799574  0.77082214  0.23829864     0.03700
C379        C  0.54225482  0.76974585  0.26190538     0.17900
C380        C  0.55378881  0.72713503  0.27641466    -0.20100
C381        C  0.56399377  0.81140821  0.27159101    -0.21400
C382        C  0.55129344  0.85453495  0.25913563    -0.19900
C383        C  0.51584059  0.85721645  0.23715599     0.19300
C384        C  0.49376734  0.81565950  0.22604831     0.01400
C385        C  0.45740445  0.82133144  0.20415293    -0.14700
C386        C  0.44253232  0.86660397  0.19475802    -0.12400
C387        C  0.46374484  0.90728845  0.20670399     0.00900
C388        C  0.50130564  0.90177457  0.22717552    -0.24600
H389        H  0.48463836  0.65203285  0.23598000     0.08900
H390        H  0.46374089  0.72476162  0.21046872     0.12500
H391        H  0.57862299  0.72725159  0.29509742     0.11200
H392        H  0.59050618  0.81073633  0.28928602     0.12400
H393        H  0.56827084  0.88623528  0.26750711     0.11400
H394        H  0.43895911  0.79150357  0.19461283     0.08500
H395        H  0.41369325  0.86974208  0.17875710     0.11800
H396        H  0.51865245  0.93264397  0.23642607     0.13600
C397        C  0.55852666  0.39550414  0.31282464    -0.01900
C398        C  0.51767394  0.37307068  0.32348604    -0.09900
C399        C  0.50422566  0.32885843  0.31214852    -0.18700
C400        C  0.53112769  0.30672773  0.28934548     0.03700
C401        C  0.57451792  0.32854111  0.28063209     0.17900
C402        C  0.58785538  0.37218326  0.29261918    -0.20100
C403        C  0.60283575  0.30854503  0.25838348    -0.21400
C404        C  0.58747644  0.26897465  0.24292129    -0.19900
C405        C  0.54365633  0.24832016  0.24955212     0.19300
C406        C  0.51546983  0.26559776  0.27353272     0.01400
C407        C  0.47214333  0.24202020  0.27963538    -0.14700
C408        C  0.45680656  0.20414525  0.26183093    -0.12400
C409        C  0.48386715  0.18912776  0.23734584     0.00900
C410        C  0.52755972  0.21095387  0.23175905    -0.24600
H411        H  0.49450971  0.39113938  0.33901365     0.08900
H412        H  0.47144324  0.31417396  0.32040776     0.12500
H413        H  0.61945698  0.38996033  0.28443214     0.11200
H414        H  0.63617585  0.32481351  0.25199313     0.12400
H415        H  0.60941654  0.25527344  0.22501502     0.11400
H416        H  0.44927994  0.25224887  0.29783305     0.08500
H417        H  0.42345907  0.18693799  0.26701029     0.11800
H418        H  0.54953707  0.19857794  0.21345477     0.13600
C419        C  0.68987831  0.51803358  0.26466573    -0.01900
C420        C  0.69405956  0.47472020  0.24987728    -0.09900
C421        C  0.73527396  0.46348129  0.23403127    -0.18700
C422        C  0.77408385  0.49526753  0.23294077     0.03700
C423        C  0.76877887  0.53984575  0.24737328     0.17900
C424        C  0.72686595  0.55082216  0.26290816    -0.20100
C425        C  0.80592817  0.57266473  0.24708504    -0.21400
C426        C  0.84897209  0.56163619  0.23382305    -0.19900
C427        C  0.85601576  0.51750276  0.22046055     0.19300
C428        C  0.81849975  0.48395048  0.21912603     0.01400
C429        C  0.82785241  0.44010615  0.20495169    -0.14700
C430        C  0.87327135  0.42917124  0.19424391    -0.12400
C431        C  0.91061755  0.46149038  0.19727117     0.00900
C432        C  0.90114398  0.50613461  0.20952025    -0.24600
H433        H  0.66558847  0.44900722  0.25112568     0.08900
H434        H  0.73616700  0.42924913  0.22351917     0.12500
H435        H  0.72363845  0.58423032  0.27459441     0.11200
H436        H  0.80205562  0.60674515  0.25783301     0.12400
H437        H  0.87739947  0.58746335  0.23466670     0.11400
H438        H  0.80114778  0.41305904  0.20258000     0.08500
H439        H  0.87969965  0.39447086  0.18493097     0.11800
H440        H  0.92971418  0.53166967  0.21166347     0.13600
C441        C  0.40834088  0.54312609  0.30764301    -0.01900
C442        C  0.39090649  0.49730492  0.31204719    -0.09900
C443        C  0.34595307  0.48457739  0.30174696    -0.18700
C444        C  0.31756475  0.51715069  0.28561310     0.03700
C445        C  0.33496994  0.56422648  0.28204004     0.17900
C446        C  0.37961318  0.57704304  0.29367570    -0.20100
C447        C  0.30906586  0.59733804  0.26528082    -0.21400
C448        C  0.26764242  0.58402885  0.25054576    -0.19900
C449        C  0.25059230  0.53756824  0.25276665     0.19300
C450        C  0.27405612  0.50393345  0.27133953     0.01400
C451        C  0.25365529  0.45815489  0.27395643    -0.14700
C452        C  0.21330966  0.44560723  0.25736637    -0.12400
C453        C  0.19267316  0.47797306  0.23747813     0.00900
C454        C  0.21083105  0.52416969  0.23583553    -0.24600
H455        H  0.41308169  0.47059684  0.32250065     0.08900
H456        H  0.33559908  0.44828251  0.30531881     0.12500
H457        H  0.39366099  0.61226525  0.28963311     0.11200
H458        H  0.32191825  0.63326965  0.26254963     0.12400
H459        H  0.24931190  0.61002180  0.23681801     0.11400
H460        H  0.26819637  0.43120017  0.28848114     0.08500
H461        H  0.19915897  0.41007501  0.25934657     0.11800
H462        H  0.19411998  0.54977584  0.22099324     0.13600
C463        C  0.48300672  0.47965948  0.58101980    -0.01900
C464        C  0.46038614  0.51794755  0.56687559    -0.09900
C465        C  0.46857706  0.52867674  0.53659708    -0.18700
C466        C  0.50025001  0.50154888  0.51923595     0.03700
C467        C  0.52437369  0.46369018  0.53387658     0.17900
C468        C  0.51522624  0.45280871  0.56432190    -0.20100
C469        C  0.55740716  0.43681091  0.51800410    -0.21400
C470        C  0.56726864  0.44683377  0.48796819    -0.19900
C471        C  0.54363337  0.48336533  0.47277590     0.19300
C472        C  0.50917235  0.51080040  0.48800534     0.01400
C473        C  0.48501152  0.54601762  0.47120358    -0.14700
C474        C  0.49558619  0.55438065  0.44088037    -0.12400
C475        C  0.53081939  0.52842036  0.42628039     0.00900
C476        C  0.55443527  0.49268517  0.44240389    -0.24600
H477        H  0.43522949  0.53929613  0.57911473     0.08900
H478        H  0.44966737  0.55856005  0.52747143     0.12500
H479        H  0.53310957  0.42322889  0.57499300     0.11200
H480        H  0.57606723  0.40801031  0.52897397     0.12400
H481        H  0.59342037  0.42561791  0.47646939     0.11400
H482        H  0.45761694  0.56760218  0.48080808     0.08500
H483        H  0.47674268  0.58211996  0.42898605     0.11800
H484        H  0.58141584  0.47198519  0.43127069     0.13600
C485        C  0.09801182  0.58379708  0.79726335    -0.01900
C486        C  0.11243003  0.60161781  0.76927534    -0.09900
C487        C  0.15329417  0.58525395  0.75551201    -0.18700
C488        C  0.18103751  0.54961791  0.76915630     0.03700
C489        C  0.16875228  0.53450769  0.79871668     0.17900
C490        C  0.12729480  0.55165243  0.81254347    -0.20100
C491        C  0.19712557  0.50128692  0.81372433    -0.21400
C492        C  0.23724525  0.48267280  0.79993567    -0.19900
C493        C  0.24903850  0.49549784  0.77037816     0.19300
C494        C  0.22029624  0.52834454  0.75437246     0.01400
C495        C  0.23124993  0.53761057  0.72392366    -0.14700
C496        C  0.27045613  0.51715162  0.71041233    -0.12400
C497        C  0.30065360  0.48715961  0.72668542     0.00900
C498        C  0.28940835  0.47590279  0.75664998    -0.24600
H499        H  0.09070515  0.62704202  0.75726213     0.08900
H500        H  0.16178249  0.60076544  0.73398777     0.12500
H501        H  0.11631435  0.53775794  0.83422256     0.11200
H502        H  0.18828644  0.48968541  0.83630494     0.12400
H503        H  0.25871589  0.45742324  0.81228537     0.11400
H504        H  0.20999170  0.56024312  0.70977353     0.08500
H505        H  0.27811755  0.52648496  0.68725025     0.11800
H506        H  0.31231127  0.45237965  0.76936013     0.13600
C507        C  0.59118135  0.45880126  0.71116683    -0.01900
C508        C  0.63192644  0.45435963  0.69354841    -0.09900
C509        C  0.67598937  0.47000569  0.70448903    -0.18700
C510        C  0.68020626  0.49071013  0.73341428     0.03700
C511        C  0.63854021  0.49451570  0.75100803     0.17900
C512        C  0.59510132  0.47915619  0.73975387    -0.20100
C513        C  0.64010164  0.51344854  0.77997699    -0.21400
C514        C  0.68259079  0.52838839  0.79226084    -0.19900
C515        C  0.72433509  0.52562246  0.77563077     0.19300
C516        C  0.72391509  0.50750179  0.74579201     0.01400
C517        C  0.76719640  0.50724321  0.72984418    -0.14700
C518        C  0.80916447  0.52295322  0.74339225    -0.12400
C519        C  0.80927086  0.53887973  0.77320572     0.00900
C520        C  0.76663226  0.54063716  0.78897198    -0.24600
H521        H  0.62980760  0.43851208  0.67146016     0.08900
H522        H  0.70610217  0.46512974  0.68999230     0.12500
H523        H  0.56386480  0.48329942  0.75363485     0.11200
H524        H  0.60822940  0.51629967  0.79338610     0.12400
H525        H  0.68276566  0.54235858  0.81492512     0.11400
H526        H  0.76969921  0.49495856  0.70699247     0.08500
H527        H  0.84190884  0.52118309  0.73081095     0.11800
H528        H  0.76642446  0.55334032  0.81196295     0.13600
C529        C  0.53436476  0.10070906  0.81401845    -0.01900
C530        C  0.56949507  0.13532422  0.81133512    -0.09900
C531        C  0.55808536  0.18043302  0.80067285    -0.18700
C532        C  0.51096911  0.19187272  0.79246535     0.03700
C533        C  0.47472561  0.15873825  0.79943454     0.17900
C534        C  0.48674630  0.11328008  0.80971999    -0.20100
C535        C  0.42712006  0.17029345  0.79437834    -0.21400
C536        C  0.41497686  0.21321107  0.78090283    -0.19900
C537        C  0.45024900  0.24432888  0.77075818     0.19300
C538        C  0.49883075  0.23388400  0.77634590     0.01400
C539        C  0.53341683  0.26386881  0.76348134    -0.14700
C540        C  0.52035925  0.30193268  0.74532175    -0.12400
C541        C  0.47262065  0.31247021  0.74018151     0.00900
C542        C  0.43754171  0.28448475  0.75364870    -0.24600
H543        H  0.60632584  0.12647534  0.81524517     0.08900
H544        H  0.58696256  0.20520533  0.79827685     0.12500
H545        H  0.45928683  0.08675901  0.81271230     0.11200
H546        H  0.39919662  0.14553520  0.80024284     0.12400
H547        H  0.37789872  0.22084855  0.77684868     0.11400
H548        H  0.57087206  0.25745154  0.76579628     0.08500
H549        H  0.54791003  0.32348126  0.73517915     0.11800
H550        H  0.40056091  0.29244117  0.74940930     0.13600
C551        C  0.46648294  0.59483720  0.70843623    -0.01900
C552        C  0.45267908  0.63520070  0.69223245    -0.09900
C553        C  0.46818122  0.68032175  0.70103718    -0.18700
C554        C  0.49796018  0.68633675  0.72650822     0.03700
C555        C  0.51244399  0.64500803  0.74234160     0.17900
C556        C  0.49707605  0.60029723  0.73312585    -0.20100
C557        C  0.54141739  0.64831331  0.76783132    -0.21400
C558        C  0.55492569  0.69207550  0.77884300    -0.19900
C559        C  0.54031121  0.73357760  0.76440634     0.19300
C560        C  0.51278133  0.73157874  0.73753059     0.01400
C561        C  0.50025234  0.77501412  0.72360670    -0.14700
C562        C  0.51191692  0.81832560  0.73697193    -0.12400
C563        C  0.53626199  0.81940391  0.76440431     0.00900
C564        C  0.55143058  0.77713312  0.77754432    -0.24600
H565        H  0.42929519  0.63199217  0.67298661     0.08900
H566        H  0.45564255  0.70986096  0.68783743     0.12500
H567        H  0.50863710  0.56944946  0.74574626     0.11200
H568        H  0.55278314  0.61678673  0.77980330     0.12400
H569        H  0.57625723  0.69348082  0.79914550     0.11400
H570        H  0.48029516  0.77656150  0.70291406     0.08500
H571        H  0.49943942  0.85091537  0.72679318     0.11800
H572        H  0.57006796  0.77818601  0.79893417     0.13600
C573        C  0.02425336  0.04801168  0.57556296    -0.01900
C574        C  0.00372285  0.08166290  0.55615138    -0.09900
C575        C  0.99405204  0.07104669  0.52591440    -0.18700
C576        C  0.00441012  0.02597669  0.51391839     0.03700
C577        C  0.02581200  0.99226444  0.53358430     0.17900
C578        C  0.03547510  0.00347441  0.56385687    -0.20100
C579        C  0.03746494  0.94730205  0.52299114    -0.21400
C580        C  0.02801455  0.93473872  0.49339129    -0.19900
C581        C  0.00637868  0.96665683  0.47351338     0.19300
C582        C  0.99421106  0.01282274  0.48332778     0.01400
C583        C  0.97184147  0.04319759  0.46215540    -0.14700
C584        C  0.96156266  0.02802439  0.43276407    -0.12400
C585        C  0.97352857  0.98231711  0.42330455     0.00900
C586        C  0.99633927  0.95214705  0.44392957    -0.24600
H587        H  0.99544241  0.11670194  0.56429024     0.08900
H588        H  0.97851966  0.09882262  0.51244915     0.12500
H589        H  0.05180704  0.97722331  0.57839812     0.11200
H590        H  0.05391506  0.92148657  0.53777723     0.12400
H591        H  0.03737222  0.89950044  0.48605246     0.11400
H592        H  0.96135728  0.07867810  0.46779011     0.08500
H593        H  0.94387742  0.05214560  0.41743570     0.11800
H594        H  0.00569156  0.91662145  0.43712659     0.13600
C595        C  0.34546785  0.34765899  0.63279348    -0.01900
C596        C  0.29965166  0.36356022  0.62599699    -0.09900
C597        C  0.26188965  0.33168054  0.62326603    -0.18700
C598        C  0.26865640  0.28250972  0.62751741     0.03700
C599        C  0.31568953  0.26634004  0.63256061     0.17900
C600        C  0.35335766  0.29874992  0.63502109    -0.20100
C601        C  0.32468407  0.21800503  0.63629990    -0.21400
C602        C  0.28776423  0.18538183  0.63619128    -0.19900
C603        C  0.24083708  0.20028066  0.63261028     0.19300
C604        C  0.23048650  0.24897871  0.62793867     0.01400
C605        C  0.18226498  0.26205858  0.62520129    -0.14700
C606        C  0.14600179  0.22849457  0.62817924    -0.12400
C607        C  0.15644709  0.18071221  0.63328547     0.00900
C608        C  0.20408127  0.16681551  0.63479633    -0.24600
H609        H  0.29246171  0.40104699  0.62391472     0.08900
H610        H  0.22764327  0.34673602  0.61851461     0.12500
H611        H  0.38865478  0.28580659  0.64000628     0.11200
H612        H  0.36047928  0.20540135  0.63994565     0.12400
H613        H  0.29589078  0.14831103  0.63972270     0.11400
H614        H  0.17134272  0.29815017  0.62168279     0.08500
H615        H  0.10953153  0.24017974  0.62700101     0.11800
H616        H  0.21266483  0.13004181  0.63917693     0.13600
C617        C  0.18710613  0.03728952  0.73338660    -0.01900
C618        C  0.18460348  0.00656917  0.75823224    -0.09900
C619        C  0.22540785  0.99413585  0.77438883    -0.18700
C620        C  0.27022320  0.01270336  0.76640193     0.03700
C621        C  0.27197863  0.04582161  0.74210152     0.17900
C622        C  0.23085321  0.05721424  0.72570185    -0.20100
C623        C  0.31496110  0.06678533  0.73388174    -0.21400
C624        C  0.35670964  0.05404466  0.74829157    -0.19900
C625        C  0.35662006  0.01948158  0.77096696     0.19300
C626        C  0.31349915  0.99883199  0.78093699     0.01400
C627        C  0.31615581  0.96402285  0.80411111    -0.14700
C628        C  0.36010082  0.94837253  0.81536724    -0.12400
C629        C  0.40228363  0.96714651  0.80392141     0.00900
C630        C  0.39994044  0.00395086  0.78266431    -0.24600
H631        H  0.15103342  0.99090831  0.76467316     0.08900
H632        H  0.22087349  0.96961471  0.79282255     0.12500
H633        H  0.23289952  0.08159239  0.70680404     0.11200
H634        H  0.31645023  0.09259323  0.71576992     0.12400
H635        H  0.38958877  0.07024662  0.74094425     0.11400
H636        H  0.28500832  0.94708308  0.81315933     0.08500
H637        H  0.36111639  0.92004586  0.83186233     0.11800
H638        H  0.43251194  0.01925903  0.77404086     0.13600
C639        C  0.68794753  0.98939607  0.77094676    -0.01900
C640        C  0.68533495  0.01561695  0.74406400    -0.09900
C641        C  0.72641472  0.02810197  0.72819247    -0.18700
C642        C  0.77172579  0.01437597  0.73865410     0.03700
C643        C  0.77385863  0.98657416  0.76549164     0.17900
C644        C  0.73241699  0.97472434  0.78130536    -0.20100
C645        C  0.81746835  0.97125884  0.77678229    -0.21400
C646        C  0.85928779  0.98420113  0.76264902    -0.19900
C647        C  0.85860818  0.01309324  0.73697824     0.19300
C648        C  0.81505974  0.02801357  0.72408048     0.01400
C649        C  0.81726839  0.05686259  0.69777745    -0.14700
C650        C  0.86100297  0.07249772  0.68606808    -0.12400
C651        C  0.90345267  0.05972923  0.70022825     0.00900
C652        C  0.90166776  0.02855386  0.72491554    -0.24600
H653        H  0.65136980  0.02751499  0.73557196     0.08900
H654        H  0.72170232  0.04891473  0.70801020     0.12500
H655        H  0.73486356  0.95415771  0.80193065     0.11200
H656        H  0.81931859  0.94970368  0.79700345     0.12400
H657        H  0.89255621  0.97242409  0.77231970     0.11400
H658        H  0.78578806  0.06891377  0.68632535     0.08500
H659        H  0.86148057  0.09615517  0.66682205     0.11800
H660        H  0.93437889  0.01745880  0.73567762     0.13600
C661        C  0.97663529  0.43343300  0.79325988    -0.01900
C662        C  0.96829056  0.39278253  0.81059331    -0.09900
C663        C  0.98414938  0.34848018  0.80087732    -0.18700
C664        C  0.00820754  0.34350272  0.77312623     0.03700
C665        C  0.01615841  0.38493151  0.75561904     0.17900
C666        C  0.00131140  0.42905487  0.76601017    -0.20100
C667        C  0.03747683  0.38208627  0.72729469    -0.21400
C668        C  0.04894540  0.33850785  0.71519725    -0.19900
C669        C  0.04093722  0.29694635  0.73160495     0.19300
C670        C  0.02262896  0.29884952  0.76136915     0.01400
C671        C  0.01855766  0.25581048  0.77762460    -0.14700
C672        C  0.02817931  0.21248740  0.76386305    -0.12400
C673        C  0.04160913  0.21105258  0.73363513     0.00900
C674        C  0.04947016  0.25329629  0.71795345    -0.24600
H675        H  0.94922111  0.39515533  0.83163329     0.08900
H676        H  0.97579619  0.31857264  0.81507096     0.12500
H677        H  0.00778738  0.46007224  0.75213115     0.11200
H678        H  0.04372255  0.41367213  0.71392230     0.12400
H679        H  0.06361353  0.33725853  0.69270230     0.11400
H680        H  0.00723689  0.25455511  0.80076093     0.08500
H681        H  0.02238941  0.17993818  0.77631925     0.11800
H682        H  0.06069788  0.25201700  0.69463606     0.13600
C683        C  0.02984324  0.92673003  0.69454208    -0.01900
C684        C  0.06351604  0.89074556  0.69553818    -0.09900
C685        C  0.05144206  0.84627259  0.70689953    -0.18700
C686        C  0.00520173  0.83696385  0.71777248     0.03700
C687        C  0.96995833  0.87199693  0.71330729     0.19500
C688        C  0.98261565  0.91653018  0.70189967    -0.20100
C689        C  0.92297302  0.86323617  0.72177499    -0.21400
C690        C  0.91064332  0.82096687  0.73596018    -0.19900
C691        C  0.94536518  0.78740087  0.74298952     0.19300
C692        C  0.99321501  0.79509513  0.73399800     0.01400
C693        C  0.02773120  0.76214157  0.74338145    -0.14700
C694        C  0.01546021  0.72373155  0.76131473    -0.12400
C695        C  0.96847725  0.71598258  0.76971315     0.00900
C696        C  0.93314945  0.74711289  0.76005981    -0.24600
H697        H  0.09998166  0.89787975  0.68942939     0.08900
H698        H  0.07934090  0.82036534  0.70759824     0.12500
H699        H  0.95618937  0.94420789  0.70030504     0.11200
H700        H  0.89581530  0.88966073  0.71799437     0.12400
H701        H  0.87415727  0.81544271  0.74267170     0.11400
H702        H  0.06483675  0.76603932  0.73833586     0.08500
H703        H  0.04301132  0.69969876  0.76873735     0.11800
H704        H  0.89679383  0.74108168  0.76693451     0.13600
loop_ 
_geom_bond_atom_site_label_1 
_geom_bond_atom_site_label_2 
_geom_bond_distance 
_geom_bond_site_symmetry_2 
_ccdc_geom_bond_type 
O1           C16   1.260   1_545  A
O1           Al9   1.867       .  S
C2           O12   1.267       .  A
C2            O3   1.268       .  A
C2          C607   1.484       .  S
O3           Al5   1.915       .  S
O4            C6   1.255       .  A
O4           Al5   1.907       .  S
Al5          O13   1.909       .  S
Al5          O15   1.937   1_545  S
Al5          O14   1.781       .  S
C6           O19   1.253       .  A
C6          C617   1.481       .  S
O7           C17   1.265       .  A
O7           Al9   1.901       .  S
O8           C21   1.270       .  A
O8          Al18   1.956   1_655  S
Al9          O22   1.891   1_455  S
Al9          O19   1.902       .  S
Al9          O14   1.788       .  S
O10          C17   1.268       .  A
O10         Al18   1.921       .  S
O11          C20   1.258       .  A
O11         Al18   1.913       .  S
O12         Al18   1.903       .  S
O13          C20   1.258       .  A
O14         Al18   1.785       .  S
O15          C16   1.272       .  A
C16         C683   1.467       .  S
C17         C673   1.467       .  S
C20         C573   1.495       .  S
C21          O22   1.257       .  A
C21         C651   1.486       .  S
O23          C38   1.260       .  A
O23         Al31   1.872       .  S
C24          O34   1.272       .  A
C24          O25   1.278       .  A
C24         C595   1.487       .  S
O25         Al27   1.942       .  S
O26          C28   1.251       .  A
O26         Al27   1.874       .  S
Al27         O35   1.884       .  S
Al27         O37   1.935       .  S
Al27         O36   1.782       .  S
C28          O41   1.253       .  A
C28         C497   1.480       .  S
O29          C39   1.257       .  A
O29         Al31   1.910       .  S
O30          C43   1.273       .  A
O30         Al40   1.924       .  S
Al31         O44   1.904       .  S
Al31         O41   1.898       .  S
Al31         O36   1.785       .  S
O32          C39   1.259       .  A
O32         Al40   1.916       .  S
O33          C42   1.252       .  A
O33         Al40   1.914       .  S
O34         Al40   1.894       .  S
O35          C42   1.248       .  A
O36         Al40   1.796       .  S
O37          C38   1.269       .  A
C38         C551   1.486       .  S
C39         C541   1.471       .  S
C42         C463   1.488       .  S
C43          O44   1.268       .  A
C43         C507   1.479       .  S
O45          C60   1.259       .  A
O45         Al53   1.877       .  S
C46          O56   1.263       .  A
C46          O47   1.268       .  A
C46         C353   1.483       .  S
O47         Al49   1.926       .  S
O48          C50   1.257       .  A
O48         Al49   1.891       .  S
Al49         O57   1.904       .  S
Al49         O59   1.944       .  S
Al49         O58   1.782       .  S
C50          O63   1.261       .  A
C50         C375   1.480       .  S
O51          C61   1.263       .  A
O51         Al53   1.908       .  S
O52          C65   1.261       .  A
O52         Al62   1.909       .  S
Al53         O66   1.910       .  S
Al53         O63   1.926       .  S
Al53         O58   1.781       .  S
O54          C61   1.265       .  A
O54         Al62   1.933       .  S
O55          C64   1.262       .  A
O55         Al62   1.917       .  S
O56         Al62   1.891       .  S
O57          C64   1.260       .  A
O58         Al62   1.783       .  S
O59          C60   1.268       .  A
C60         C441   1.469       .  S
C61         C419   1.472       .  S
C64         C475   1.487       .  S
C65          O66   1.263       .  A
C65         C397   1.462       .  S
O67          C82   1.265       .  A
O67         Al75   1.897   1_455  S
C68          O78   1.278       .  A
C68          O69   1.269       .  A
C68         C365   1.486       .  S
O69         Al71   1.886       .  S
O70          C72   1.262       .  A
O70         Al71   1.918       .  S
Al71         O79   1.904       .  S
Al71         O81   1.923   1_655  S
Al71         O80   1.789       .  S
C72          O85   1.258       .  A
C72         C287   1.474       .  S
O73          C83   1.250       .  A
O73         Al75   1.881       .  S
O74          C87   1.272       .  A
O74         Al84   1.948   1_545  S
Al75         O88   1.855       .  S
Al75         O85   1.898       .  S
Al75         O80   1.782       .  S
O76          C83   1.255       .  A
O76         Al84   1.893       .  S
O77          C86   1.255       .  A
O77         Al84   1.917       .  S
O78         Al84   1.945       .  S
O79          C86   1.254       .  A
O80         Al84   1.780       .  S
O81          C82   1.271       .  A
C82         C309   1.470       .  S
C83         C343   1.474       .  S
C86         C585   1.495       .  S
C87          O88   1.258   1_545  A
C87         C265   1.485       .  S
O89         C104   1.260       .  A
O89         Al97   1.861       .  S
C90         O100   1.269       .  A
C90          O91   1.277       .  A
C90         C243   1.494       .  S
O91         Al93   1.948       .  S
O92          C94   1.251       .  A
O92         Al93   1.877       .  S
Al93        O101   1.898       .  S
Al93        O103   1.946       .  S
Al93        O102   1.782       .  S
C94         O107   1.250       .  A
C94         C519   1.473       .  S
O95         C105   1.257       .  A
O95         Al97   1.903       .  S
O96         C109   1.270       .  A
O96        Al106   1.931   1_455  S
Al97        O110   1.908   1_655  S
Al97        O107   1.889       .  S
Al97        O102   1.788       .  S
O98         C105   1.261       .  A
O98        Al106   1.914       .  S
O99         C108   1.253       .  A
O99        Al106   1.901       .  S
O100       Al106   1.896       .  S
O101        C108   1.252       .  A
O102       Al106   1.789       .  S
O103        C104   1.273       .  A
C104        C661   1.484       .  S
C105        C695   1.460       .  S
C108        C233   1.488       .  S
C109        O110   1.265       .  A
C109        C485   1.475       .  S
O111        C126   1.261       .  A
O111       Al119   1.877   1_545  S
C112        O122   1.267       .  A
C112        O113   1.269       .  A
C112        C255   1.495       .  S
O113       Al115   1.926       .  S
O114        C116   1.256       .  A
O114       Al115   1.901       .  S
Al115       O123   1.901       .  S
Al115       O125   1.941   1_565  S
Al115       O124   1.785       .  S
C116        O129   1.255       .  A
C116        C639   1.485       .  S
O117        C127   1.266       .  A
O117       Al119   1.906       .  S
O118        C131   1.266       .  A
O118       Al128   1.946       .  S
Al119       O132   1.889       .  S
Al119       O129   1.908       .  S
Al119       O124   1.790       .  S
O120        C127   1.266       .  A
O120       Al128   1.913       .  S
O121        C130   1.257       .  A
O121       Al128   1.902       .  S
O122       Al128   1.913       .  S
O123        C130   1.257       .  A
O124       Al128   1.787       .  S
O125        C126   1.271       .  A
C126        C529   1.471       .  S
C127        C563   1.466       .  S
C130        C199   1.488       .  S
C131        O132   1.256       .  A
C131        C629   1.481       .  S
O133        C148   1.258       .  A
O133       Al141   1.870   1_655  S
C134        O144   1.267       .  A
C134        O135   1.275       .  A
C134        C177   1.491       .  S
O135       Al137   1.951       .  S
O136        C138   1.253       .  A
O136       Al137   1.876       .  S
Al137       O145   1.908       .  S
Al137       O147   1.955   1_455  S
Al137       O146   1.785       .  S
C138        O151   1.256       .  A
C138        C277   1.475       .  S
O139        C149   1.263       .  A
O139       Al141   1.918       .  S
O140        C153   1.265       .  A
O140       Al150   1.911       .  S
Al141       O154   1.900       .  S
Al141       O151   1.910       .  S
Al141       O146   1.788       .  S
O142        C149   1.260       .  A
O142       Al150   1.910       .  S
O143        C152   1.254       .  A
O143       Al150   1.896       .  S
O144       Al150   1.889       .  S
O145        C152   1.256       .  A
O146       Al150   1.788       .  S
O147        C148   1.272       .  A
C148        C431   1.486       .  S
C149        C453   1.475       .  S
C152        C221   1.483       .  S
C153        O154   1.264       .  A
C153        C299   1.456       .  S
O155        C170   1.263       .  A
O155       Al163   1.893       .  S
C156        O166   1.277       .  A
C156        O157   1.272       .  A
C156        C189   1.491       .  S
O157       Al159   1.900       .  S
O158        C160   1.262       .  A
O158       Al159   1.915       .  S
Al159       O167   1.894       .  S
Al159       O169   1.938       .  S
Al159       O168   1.789       .  S
C160        O173   1.258       .  A
C160        C409   1.477       .  S
O161        C171   1.249       .  A
O161       Al163   1.873       .  S
O162        C175   1.272       .  A
O162       Al172   1.953   1_565  S
Al163       O176   1.858   1_545  S
Al163       O173   1.904       .  S
Al163       O168   1.784       .  S
O164        C171   1.253       .  A
O164       Al172   1.888       .  S
O165        C174   1.253       .  A
O165       Al172   1.901       .  S
O166       Al172   1.945       .  S
O167        C174   1.252       .  A
O168       Al172   1.788       .  S
O169        C170   1.271       .  A
C170        C331   1.480       .  S
C171        C321   1.469       .  S
C174        C211   1.486       .  S
C175        O176   1.258       .  A
C175        C387   1.489       .  S
C177        C178   1.402       .  A
C177        C182   1.406       .  A
C178        C179   1.396       .  A
C178        H191   1.083       .  S
C179        C180   1.414       .  A
C179        H192   1.077       .  S
C180        C186   1.435       .  A
C180        C181   1.423       .  A
C181        C183   1.401       .  A
C181        C182   1.414       .  A
C182        H193   1.084       .  S
C183        C184   1.395       .  A
C183        H194   1.084       .  S
C184        C185   1.402       .  A
C184        H195   1.084       .  S
C185        C186   1.422       .  A
C185        C190   1.413       .  A
C186        C187   1.415       .  A
C187        C188   1.397       .  A
C187        H196   1.077       .  S
C188        C189   1.402       .  A
C188        H197   1.083       .  S
C189        C190   1.407       .  A
C190        H198   1.084       .  S
C199        C200   1.403       .  A
C199        C204   1.403   1_565  A
C200        C201   1.398       .  A
C200        H213   1.083       .  S
C201        C202   1.414       .  A
C201        H214   1.077       .  S
C202        C208   1.433   1_556  A
C202        C203   1.423   1_565  A
C203        C205   1.399       .  A
C203        C204   1.408       .  A
C204        H215   1.084       .  S
C205        C206   1.390   1_556  A
C205        H216   1.084       .  S
C206        C207   1.400       .  A
C206        H217   1.084       .  S
C207        C208   1.422   1_545  A
C207        C212   1.406       .  A
C208        C209   1.416       .  A
C209        C210   1.399       .  A
C209        H218   1.077       .  S
C210        C211   1.401   1_565  A
C210        H219   1.083       .  S
C211        C212   1.404       .  A
C212        H220   1.084       .  S
C221        C222   1.401       .  A
C221        C226   1.402       .  A
C222        C223   1.397       .  A
C222        H235   1.084       .  S
C223        C224   1.415       .  A
C223        H236   1.077       .  S
C224        C230   1.434   1_554  A
C224        C225   1.424   1_455  A
C225        C227   1.400       .  A
C225        C226   1.410   1_655  A
C226        H237   1.084   1_455  S
C227        C228   1.392   1_554  A
C227        H238   1.084       .  S
C228        C229   1.400       .  A
C228        H239   1.084       .  S
C229        C230   1.422   1_655  A
C229        C234   1.409       .  A
C230        C231   1.415       .  A
C231        C232   1.398       .  A
C231        H240   1.077       .  S
C232        C233   1.402   1_455  A
C232        H241   1.083       .  S
C233        C234   1.404       .  A
C234        H242   1.084       .  S
C243        C244   1.404       .  A
C243        C248   1.405       .  A
C244        C245   1.404       .  A
C244        H257   1.083       .  S
C245        C246   1.417       .  A
C245        H258   1.078       .  S
C246        C252   1.439       .  A
C246        C247   1.422       .  A
C247        C249   1.400       .  A
C247        C248   1.408       .  A
C248        H259   1.084       .  S
C249        C250   1.391       .  A
C249        H260   1.084       .  S
C250        C251   1.400       .  A
C250        H261   1.084       .  S
C251        C252   1.423       .  A
C251        C256   1.409       .  A
C252        C253   1.417       .  A
C253        C254   1.404       .  A
C253        H262   1.078       .  S
C254        C255   1.404       .  A
C254        H263   1.083       .  S
C255        C256   1.405       .  A
C256        H264   1.084       .  S
C265        C266   1.401       .  A
C265        C270   1.404       .  A
C266        C267   1.406       .  A
C266        H279   1.083       .  S
C267        C268   1.420       .  A
C267        H280   1.078       .  S
C268        C274   1.433       .  A
C268        C269   1.420   1_655  A
C269        C271   1.398       .  A
C269        C270   1.395   1_455  A
C270        H281   1.084       .  S
C271        C272   1.383       .  A
C271        H282   1.084       .  S
C272        C273   1.396       .  A
C272        H283   1.084       .  S
C273        C274   1.424   1_455  A
C273        C278   1.399       .  A
C274        C275   1.416       .  A
C275        C276   1.402       .  A
C275        H284   1.078       .  S
C276        C277   1.402   1_655  A
C276        H285   1.083       .  S
C277        C278   1.397       .  A
C278        H286   1.085       .  S
C287        C288   1.400       .  A
C287        C292   1.399   1_655  A
C288        C289   1.398       .  A
C288        H301   1.083       .  S
C289        C290   1.415   1_655  A
C289        H302   1.077       .  S
C290        C296   1.428       .  A
C290        C291   1.423       .  A
C291        C293   1.398       .  A
C291        C292   1.398       .  A
C292        H303   1.085       .  S
C293        C294   1.384       .  A
C293        H304   1.084       .  S
C294        C295   1.397       .  A
C294        H305   1.084       .  S
C295        C296   1.422       .  A
C295        C300   1.395       .  A
C296        C297   1.418       .  A
C297        C298   1.399       .  A
C297        H306   1.077   1_455  S
C298        C299   1.395       .  A
C298        H307   1.084       .  S
C299        C300   1.395       .  A
C300        H308   1.085       .  S
C309        C310   1.396       .  A
C309        C314   1.401       .  A
C310        C311   1.402       .  A
C310        H323   1.083       .  S
C311        C312   1.421       .  A
C311        H324   1.077       .  S
C312        C318   1.427   1_565  A
C312        C313   1.419   1_565  A
C313        C315   1.399       .  A
C313        C314   1.392   1_545  A
C314        H325   1.085       .  S
C315        C316   1.385       .  A
C315        H326   1.084       .  S
C316        C317   1.397       .  A
C316        H327   1.084       .  S
C317        C318   1.426       .  A
C317        C322   1.401       .  A
C318        C319   1.412       .  A
C319        C320   1.394       .  A
C319        H328   1.077   1_545  S
C320        C321   1.400       .  A
C320        H329   1.083       .  S
C321        C322   1.396       .  A
C322        H330   1.085       .  S
C331        C332   1.399       .  A
C331        C336   1.402       .  A
C332        C333   1.408       .  A
C332        H345   1.083       .  S
C333        C334   1.422   1_545  A
C333        H346   1.078       .  S
C334        C340   1.432       .  A
C334        C335   1.418       .  A
C335        C337   1.398       .  A
C335        C336   1.391   1_565  A
C336        H347   1.084       .  S
C337        C338   1.382       .  A
C337        H348   1.084       .  S
C338        C339   1.395       .  A
C338        H349   1.084       .  S
C339        C340   1.426       .  A
C339        C344   1.399       .  A
C340        C341   1.413       .  A
C341        C342   1.399       .  A
C341        H350   1.078       .  S
C342        C343   1.403       .  A
C342        H351   1.083       .  S
C343        C344   1.395       .  A
C344        H352   1.085       .  S
C353        C354   1.401       .  A
C353        C358   1.403       .  A
C354        C355   1.397       .  A
C354        H367   1.083       .  S
C355        C356   1.415       .  A
C355        H368   1.077       .  S
C356        C362   1.432       .  A
C356        C357   1.423       .  A
C357        C359   1.399       .  A
C357        C358   1.406       .  A
C358        H369   1.084       .  S
C359        C360   1.390       .  A
C359        H370   1.084       .  S
C360        C361   1.400       .  A
C360        H371   1.084       .  S
C361        C362   1.422       .  A
C361        C366   1.406       .  A
C362        C363   1.416       .  A
C363        C364   1.399       .  A
C363        H372   1.077       .  S
C364        C365   1.401       .  A
C364        H373   1.083       .  S
C365        C366   1.405       .  A
C366        H374   1.084       .  S
C375        C376   1.403       .  A
C375        C380   1.398       .  A
C376        C377   1.403       .  A
C376        H389   1.083       .  S
C377        C378   1.415       .  A
C377        H390   1.078       .  S
C378        C384   1.435       .  A
C378        C379   1.425       .  A
C379        C381   1.396       .  A
C379        C380   1.402       .  A
C380        H391   1.085       .  S
C381        C382   1.384       .  A
C381        H392   1.084       .  S
C382        C383   1.398       .  A
C382        H393   1.082       .  S
C383        C384   1.419       .  A
C383        C388   1.396       .  A
C384        C385   1.421       .  A
C385        C386   1.409       .  A
C385        H394   1.078       .  S
C386        C387   1.402       .  A
C386        H395   1.083       .  S
C387        C388   1.404       .  A
C388        H396   1.082       .  S
C397        C398   1.397       .  A
C397        C402   1.393       .  A
C398        C399   1.401       .  A
C398        H411   1.083       .  S
C399        C400   1.418       .  A
C399        H412   1.078       .  S
C400        C406   1.431       .  A
C400        C401   1.423       .  A
C401        C403   1.397       .  A
C401        C402   1.397       .  A
C402        H413   1.085       .  S
C403        C404   1.384       .  A
C403        H414   1.084       .  S
C404        C405   1.398       .  A
C404        H415   1.084       .  S
C405        C406   1.422       .  A
C405        C410   1.397       .  A
C406        C407   1.417       .  A
C407        C408   1.402       .  A
C407        H416   1.078       .  S
C408        C409   1.400       .  A
C408        H417   1.083       .  S
C409        C410   1.400       .  A
C410        H418   1.085       .  S
C419        C420   1.399       .  A
C419        C424   1.396       .  A
C420        C421   1.400       .  A
C420        H433   1.083       .  S
C421        C422   1.416       .  A
C421        H434   1.078       .  S
C422        C428   1.436       .  A
C422        C423   1.426       .  A
C423        C425   1.398       .  A
C423        C424   1.408       .  A
C424        H435   1.085       .  S
C425        C426   1.389       .  A
C425        H436   1.084       .  S
C426        C427   1.400       .  A
C426        H437   1.084       .  S
C427        C428   1.421       .  A
C427        C432   1.404       .  A
C428        C429   1.420       .  A
C429        C430   1.405       .  A
C429        H438   1.078       .  S
C430        C431   1.400       .  A
C430        H439   1.083       .  S
C431        C432   1.404       .  A
C432        H440   1.085       .  S
C441        C442   1.397       .  A
C441        C446   1.399       .  A
C442        C443   1.395       .  A
C442        H455   1.084       .  S
C443        C444   1.413       .  A
C443        H456   1.077       .  S
C444        C450   1.430       .  A
C444        C445   1.426       .  A
C445        C447   1.400       .  A
C445        C446   1.408       .  A
C446        H457   1.085       .  S
C447        C448   1.391       .  A
C447        H458   1.084       .  S
C448        C449   1.401       .  A
C448        H459   1.084       .  S
C449        C450   1.420       .  A
C449        C454   1.402       .  A
C450        C451   1.419       .  A
C451        C452   1.401       .  A
C451        H460   1.077       .  S
C452        C453   1.396       .  A
C452        H461   1.083       .  S
C453        C454   1.403       .  A
C454        H462   1.085       .  S
C463        C464   1.403       .  A
C463        C468   1.403       .  A
C464        C465   1.398       .  A
C464        H477   1.083       .  S
C465        C466   1.414       .  A
C465        H478   1.077       .  S
C466        C472   1.434       .  A
C466        C467   1.424       .  A
C467        C469   1.400       .  A
C467        C468   1.410       .  A
C468        H479   1.084       .  S
C469        C470   1.392       .  A
C469        H480   1.084       .  S
C470        C471   1.400       .  A
C470        H481   1.084       .  S
C471        C472   1.422       .  A
C471        C476   1.408       .  A
C472        C473   1.417       .  A
C473        C474   1.400       .  A
C473        H482   1.077       .  S
C474        C475   1.401       .  A
C474        H483   1.083       .  S
C475        C476   1.404       .  A
C476        H484   1.084       .  S
C485        C486   1.400       .  A
C485        C490   1.402       .  A
C486        C487   1.389       .  A
C486        H499   1.084       .  S
C487        C488   1.411       .  A
C487        H500   1.077       .  S
C488        C494   1.427       .  A
C488        C489   1.423       .  A
C489        C491   1.401       .  A
C489        C490   1.412       .  A
C490        H501   1.084       .  S
C491        C492   1.395       .  A
C491        H502   1.084       .  S
C492        C493   1.402       .  A
C492        H503   1.084       .  S
C493        C494   1.421       .  A
C493        C498   1.411       .  A
C494        C495   1.412       .  A
C495        C496   1.390       .  A
C495        H504   1.077       .  S
C496        C497   1.401       .  A
C496        H505   1.084       .  S
C497        C498   1.405       .  A
C498        H506   1.084       .  S
C507        C508   1.400       .  A
C507        C512   1.402       .  A
C508        C509   1.405       .  A
C508        H521   1.083       .  S
C509        C510   1.420       .  A
C509        H522   1.078       .  S
C510        C516   1.430       .  A
C510        C511   1.419       .  A
C511        C513   1.398       .  A
C511        C512   1.392       .  A
C512        H523   1.085       .  S
C513        C514   1.382       .  A
C513        H524   1.084       .  S
C514        C515   1.396       .  A
C514        H525   1.084       .  S
C515        C516   1.425       .  A
C515        C520   1.398       .  A
C516        C517   1.415       .  A
C517        C518   1.400       .  A
C517        H526   1.078       .  S
C518        C519   1.402       .  A
C518        H527   1.083       .  S
C519        C520   1.396       .  A
C520        H528   1.085       .  S
C529        C530   1.396       .  A
C529        C534   1.404       .  A
C530        C531   1.396       .  A
C530        H543   1.083       .  S
C531        C532   1.416       .  A
C531        H544   1.078       .  S
C532        C538   1.426       .  A
C532        C533   1.419       .  A
C533        C535   1.401       .  A
C533        C534   1.404       .  A
C534        H545   1.085       .  S
C535        C536   1.393       .  A
C535        H546   1.084       .  S
C536        C537   1.401       .  A
C536        H547   1.084       .  S
C537        C538   1.425       .  A
C537        C542   1.409       .  A
C538        C539   1.411       .  A
C539        C540   1.391       .  A
C539        H548   1.078       .  S
C540        C541   1.399       .  A
C540        H549   1.084       .  S
C541        C542   1.399       .  A
C542        H550   1.084       .  S
C551        C552   1.401       .  A
C551        C556   1.403       .  A
C552        C553   1.405       .  A
C552        H565   1.083       .  S
C553        C554   1.419       .  A
C553        H566   1.078       .  S
C554        C560   1.433       .  A
C554        C555   1.421       .  A
C555        C557   1.399       .  A
C555        C556   1.398       .  A
C556        H567   1.085       .  S
C557        C558   1.385       .  A
C557        H568   1.084       .  S
C558        C559   1.397       .  A
C558        H569   1.084       .  S
C559        C560   1.424       .  A
C559        C564   1.400       .  A
C560        C561   1.417       .  A
C561        C562   1.402       .  A
C561        H570   1.078       .  S
C562        C563   1.398       .  A
C562        H571   1.083       .  S
C563        C564   1.395       .  A
C564        H572   1.086       .  S
C573        C574   1.406       .  A
C573        C578   1.403       .  A
C574        C575   1.405   1_455  A
C574        H587   1.083   1_455  S
C575        C576   1.416   1_655  A
C575        H588   1.078       .  S
C576        C582   1.440   1_455  A
C576        C577   1.424   1_545  A
C577        C579   1.399       .  A
C577        C578   1.410   1_565  A
C578        H589   1.084   1_545  S
C579        C580   1.390       .  A
C579        H590   1.084       .  S
C580        C581   1.400       .  A
C580        H591   1.084       .  S
C581        C582   1.422   1_465  A
C581        C586   1.407   1_455  A
C582        C583   1.418       .  A
C583        C584   1.407       .  A
C583        H592   1.078       .  S
C584        C585   1.404   1_545  A
C584        H593   1.083       .  S
C585        C586   1.405       .  A
C586        H594   1.084   1_655  S
C595        C596   1.402       .  A
C595        C600   1.404       .  A
C596        C597   1.399       .  A
C596        H609   1.083       .  S
C597        C598   1.415       .  A
C597        H610   1.077       .  S
C598        C604   1.433       .  A
C598        C599   1.422       .  A
C599        C601   1.400       .  A
C599        C600   1.406       .  A
C600        H611   1.084       .  S
C601        C602   1.390       .  A
C601        H612   1.084       .  S
C602        C603   1.400       .  A
C602        H613   1.084       .  S
C603        C604   1.422       .  A
C603        C608   1.405       .  A
C604        C605   1.416       .  A
C605        C606   1.400       .  A
C605        H614   1.077       .  S
C606        C607   1.401       .  A
C606        H615   1.083       .  S
C607        C608   1.403       .  A
C608        H616   1.085       .  S
C617        C618   1.403       .  A
C617        C622   1.398       .  A
C618        C619   1.400   1_545  A
C618        H631   1.083   1_545  S
C619        C620   1.414   1_565  A
C619        H632   1.078       .  S
C620        C626   1.435   1_545  A
C620        C621   1.426       .  A
C621        C623   1.397       .  A
C621        C622   1.406       .  A
C622        H633   1.085       .  S
C623        C624   1.387       .  A
C623        H634   1.084       .  S
C624        C625   1.400       .  A
C624        H635   1.084       .  S
C625        C626   1.420   1_545  A
C625        C630   1.398       .  A
C626        C627   1.422       .  A
C627        C628   1.408       .  A
C627        H636   1.078       .  S
C628        C629   1.398       .  A
C628        H637   1.083       .  S
C629        C630   1.403   1_565  A
C630        H638   1.085       .  S
C639        C640   1.404   1_565  A
C639        C644   1.399       .  A
C640        C641   1.402       .  A
C640        H653   1.083       .  S
C641        C642   1.414       .  A
C641        H654   1.078       .  S
C642        C648   1.437       .  A
C642        C643   1.426   1_545  A
C643        C645   1.397       .  A
C643        C644   1.405       .  A
C644        H655   1.085       .  S
C645        C646   1.386       .  A
C645        H656   1.084       .  S
C646        C647   1.399   1_565  A
C646        H657   1.084       .  S
C647        C648   1.419       .  A
C647        C652   1.398       .  A
C648        C649   1.423       .  A
C649        C650   1.410       .  A
C649        H658   1.078       .  S
C650        C651   1.399       .  A
C650        H659   1.083       .  S
C651        C652   1.404       .  A
C652        H660   1.085       .  S
C661        C662   1.400       .  A
C661        C666   1.405   1_655  A
C662        C663   1.402       .  A
C662        H675   1.083       .  S
C663        C664   1.418   1_655  A
C663        H676   1.078       .  S
C664        C670   1.430       .  A
C664        C665   1.420       .  A
C665        C667   1.400       .  A
C665        C666   1.399       .  A
C666        H677   1.085       .  S
C667        C668   1.387       .  A
C667        H678   1.084       .  S
C668        C669   1.397       .  A
C668        H679   1.084       .  S
C669        C670   1.423       .  A
C669        C674   1.400       .  A
C670        C671   1.416       .  A
C671        C672   1.400       .  A
C671        H680   1.078       .  S
C672        C673   1.398       .  A
C672        H681   1.083       .  S
C673        C674   1.397       .  A
C674        H682   1.086       .  S
C683        C684   1.395       .  A
C683        C688   1.402   1_455  A
C684        C685   1.394       .  A
C684        H697   1.084       .  S
C685        C686   1.417       .  A
C685        H698   1.077       .  S
C686        C692   1.423   1_455  A
C686        C687   1.419   1_455  A
C687        C689   1.401       .  A
C687        C688   1.400       .  A
C688        H699   1.085       .  S
C689        C690   1.392       .  A
C689        H700   1.084       .  S
C690        C691   1.400       .  A
C690        H701   1.084       .  S
C691        C692   1.426       .  A
C691        C696   1.407       .  A
C692        C693   1.411   1_655  A
C693        C694   1.387       .  A
C693        H702   1.077       .  S
C694        C695   1.395   1_455  A
C694        H703   1.084       .  S
C695        C696   1.397       .  A
C696        H704   1.084       .  S
