geometry optimzed in LAMMPS
_audit_creation_date              2020-12-01 
_audit_creation_method            'lammps2cif' 
_symmetry_space_group_name_H-M    'P1' 
_symmetry_Int_Tables_number       1 
_symmetry_cell_setting            triclinic 
loop_ 
_symmetry_equiv_pos_as_xyz 
  x,y,z 
_cell_length_a                    52.16568735 
_cell_length_b                    52.190804903650644 
_cell_length_c                    30.69423192179166 
_cell_angle_alpha                 90.21238210675101 
_cell_angle_beta                  89.98776275621911 
_cell_angle_gamma                 89.35440847563031 
loop_ 
_atom_site_label 
_atom_site_type_symbol 
_atom_site_fract_x 
_atom_site_fract_y 
_atom_site_fract_z 
_atom_site_charge 
O1          O  0.33239934  0.83127455  0.43528113    -0.82200
C2          C  0.33099399  0.87537015  0.27464381     0.97200
O3          O  0.31540082  0.86404316  0.29932639    -0.71300
O4          O  0.30181972  0.83162655  0.36066047    -0.74900
Al5        Al  0.31474314  0.86571060  0.36134079     1.49000
C6          C  0.31228789  0.81086280  0.34916646     0.92400
O7          O  0.38582175  0.82127422  0.35072398    -0.81100
O8          O  0.39690131  0.87311343  0.38492117    -0.74700
Al9        Al  0.35772041  0.82875907  0.38975692     1.90100
O10         O  0.38466007  0.85320959  0.30476351    -0.73800
O11         O  0.35926057  0.90662655  0.37460110    -0.73600
O12         O  0.34971632  0.88749785  0.29079206    -0.79300
O13         O  0.31848067  0.90202198  0.36200624    -0.77500
O14         O  0.34792510  0.85758808  0.36397281    -1.13600
O15         O  0.31268618  0.86763547  0.42279019    -0.72800
C16         C  0.32009271  0.85069462  0.44935870     0.97900
C17         C  0.39426336  0.83235946  0.31717460     0.94300
Al18       Al  0.37068090  0.87850699  0.34080895     1.55600
O19         O  0.33630432  0.80803131  0.35296757    -0.77400
C20         C  0.33674536  0.91548381  0.37532958     0.98500
C21         C  0.39786986  0.86115887  0.42072582     0.93400
O22         O  0.38019919  0.84570035  0.42947816    -0.82700
O23         O  0.35345747  0.83009351  0.93295809    -0.82200
C24         C  0.34385454  0.87671469  0.77178208     0.97200
O25         O  0.32932154  0.86750522  0.80032763    -0.71300
O26         O  0.31560849  0.83558924  0.86146749    -0.74900
Al27       Al  0.33443225  0.86742061  0.86131182     1.49000
C28         C  0.32234177  0.81333305  0.84939695     0.92400
O29         O  0.39452894  0.81092678  0.83274099    -0.81100
O30         O  0.41857209  0.85929676  0.86014352    -0.74700
Al31       Al  0.37287081  0.82328096  0.87965094     1.90100
O32         O  0.39474135  0.84243168  0.78634122    -0.73800
O33         O  0.38720331  0.89988773  0.86111089    -0.73600
O34         O  0.36617918  0.88346236  0.78256881    -0.79300
O35         O  0.34528641  0.90273215  0.86192964    -0.77500
O36         O  0.36577619  0.85353841  0.85573637    -1.13600
O37         O  0.33684913  0.86852623  0.92284954    -0.72800
C38         C  0.34334672  0.85056474  0.94807444     0.97900
C39         C  0.40091998  0.81978508  0.79604019     0.94300
Al40       Al  0.38955264  0.86998118  0.82538065     1.55600
O41         O  0.34555518  0.80673911  0.85079993    -0.77400
C42         C  0.36697378  0.91287435  0.86724300     0.98500
C43         C  0.42072461  0.84641538  0.89471183     0.93400
O44         O  0.40158527  0.83523757  0.91027140    -0.82700
O45         O  0.40857630  0.16345069  0.48248841    -0.82200
C46         C  0.34382873  0.15004800  0.33679906     0.97200
O47         O  0.36370853  0.13685075  0.34547496    -0.71300
O48         O  0.40455284  0.16409362  0.35845378    -0.74900
Al49       Al  0.38860610  0.13853890  0.39152259     1.49000
C50         C  0.41711331  0.18273405  0.37269116     0.92400
O51         O  0.36422585  0.21162216  0.42698579    -0.81100
O52         O  0.33807079  0.15021679  0.48815211    -0.74700
Al53       Al  0.38544214  0.18556079  0.45273219     1.90100
O54         O  0.32798257  0.19196824  0.43714783    -0.73800
O55         O  0.33548273  0.11994504  0.41746585    -0.73600
O56         O  0.33208218  0.16259632  0.36616354    -0.79300
O57         O  0.37592001  0.10948408  0.42017897    -0.77500
O58         O  0.37031267  0.16031119  0.42362788    -1.13600
O59         O  0.41692242  0.13608269  0.43049223    -0.72800
C60         C  0.42240227  0.14568841  0.46695342     0.97900
C61         C  0.34017037  0.21243668  0.43157836     0.94300
Al62       Al  0.33629034  0.15653523  0.42705377     1.55600
O63         O  0.41140021  0.19259899  0.40921887    -0.77400
C64         C  0.35287964  0.10301377  0.41904918     0.98500
C65         C  0.34816148  0.16535854  0.51538617     0.93400
O66         O  0.36339109  0.18273262  0.50310741    -0.82700
O67         O  0.37691976  0.18902188  0.85528773    -0.82200
C68         C  0.36351075  0.14345034  0.01566300     0.97200
O69         O  0.35011639  0.15505379  0.98746407    -0.71300
O70         O  0.33886779  0.18732358  0.92283722    -0.74900
Al71       Al  0.35544295  0.15382996  0.92623333     1.49000
C72         C  0.34639566  0.20964091  0.93195737     0.92400
O73         O  0.41845253  0.20452578  0.95569795    -0.81100
O74         O  0.44008357  0.15317095  0.92570491    -0.74700
Al75       Al  0.39663925  0.19419405  0.90824565     1.90100
O76         O  0.41815861  0.17216272  0.00035220    -0.73800
O77         O  0.40470993  0.11511637  0.92707753    -0.73600
O78         O  0.38553270  0.13499332  0.00508369    -0.79300
O79         O  0.36296807  0.11756484  0.92798177    -0.77500
O80         O  0.38762895  0.16451021  0.93184172    -1.13600
O81         O  0.35860741  0.15169349  0.86487506    -0.72800
C82         C  0.36546745  0.16958237  0.83997701     0.97900
C83         C  0.42473575  0.19467160  0.99179473     0.94300
Al84       Al  0.41012140  0.14542721  0.96161328     1.55600
O85         O  0.37001441  0.21361204  0.93570414    -0.77400
C86         C  0.38321207  0.10424564  0.92414568     0.98500
C87         C  0.44343507  0.16719089  0.89255830     0.93400
O88         O  0.42494449  0.18009458  0.87760125    -0.82700
O89         O  0.58533935  0.84285585  0.19877334    -0.82200
C90         C  0.64228442  0.87760729  0.05859808     0.97200
O91         O  0.62177576  0.88863366  0.07181684    -0.71300
O92         O  0.58779765  0.85320214  0.07304643    -0.74900
Al93       Al  0.59716489  0.87725792  0.11513585     1.49000
C94         C  0.57717909  0.83233827  0.08109501     0.92400
O95         O  0.63238026  0.80718075  0.12799631    -0.81100
O96         O  0.64908563  0.86552981  0.20817846    -0.74700
Al97       Al  0.60868205  0.82687764  0.16174327     1.90100
O98         O  0.66547590  0.82954503  0.14783811    -0.73800
O99         O  0.64589909  0.90193193  0.14705489    -0.73600
O100        O  0.65603143  0.86462486  0.08469364    -0.79300
O101        O  0.60427408  0.90442927  0.15435310    -0.77500
O102        O  0.61915804  0.85623057  0.14078177    -1.13600
O103        O  0.56758223  0.86877503  0.15214962    -0.72800
C104        C  0.56619824  0.85533402  0.18653584     0.97900
C105        C  0.65582279  0.80801700  0.13788142     0.94300
Al106      Al  0.65178276  0.86480688  0.14626591     1.55600
O107        O  0.58239747  0.82056201  0.11632060    -0.77400
C108        C  0.62583020  0.91502876  0.15557537     0.98500
C109        C  0.64200765  0.84651191  0.23046048     0.93400
O110        O  0.63101431  0.82759242  0.21252000    -0.82700
O111        O  0.61980296  0.82614487  0.56501484    -0.82200
C112        C  0.63095275  0.86952195  0.73309825     0.97200
O113        O  0.64769239  0.87010741  0.70306188    -0.71300
O114        O  0.65901247  0.82428801  0.67257598    -0.74900
Al115      Al  0.64867520  0.85478854  0.64470818     1.49000
C116        C  0.65413575  0.80164758  0.66167518     0.92400
O117        O  0.58908537  0.80466919  0.67005243    -0.81100
O118        O  0.57413420  0.87197993  0.61598830    -0.74700
Al119      Al  0.60555837  0.81723895  0.61899657     1.90100
O120        O  0.56948127  0.84071571  0.68642237    -0.73800
O121        O  0.60995030  0.89876134  0.65664092    -0.73600
O122        O  0.60824401  0.86370580  0.72371284    -0.79300
O123        O  0.64284647  0.88669638  0.61718547    -0.77500
O124        O  0.61561702  0.84629092  0.64400139    -1.13600
O125        O  0.65653260  0.84148271  0.58650800    -0.72800
C126        C  0.64204076  0.83355584  0.55622774     0.97900
C127        C  0.57081927  0.81657491  0.68824736     0.94300
Al128      Al  0.59254484  0.86703856  0.66866859     1.55600
O129        O  0.63561859  0.79697661  0.63612315    -0.77400
C130        C  0.62849172  0.90415765  0.63193216     0.98500
C131        C  0.56410074  0.85395680  0.59465497     0.93400
O132        O  0.57342694  0.83138688  0.59674452    -0.82700
O133        O  0.65325449  0.19364026  0.22391907    -0.82200
C134        C  0.65250778  0.14264494  0.06570175     0.97200
O135        O  0.66798646  0.15396125  0.09066758    -0.71300
O136        O  0.68364035  0.18765215  0.14895402    -0.74900
Al137      Al  0.66668562  0.15501009  0.15262135     1.49000
C138        C  0.67521217  0.20949417  0.13801457     0.92400
O139        O  0.60206086  0.20827606  0.13798580    -0.81100
O140        O  0.58346291  0.15991039  0.17094158    -0.74700
Al141      Al  0.62843600  0.19771845  0.17777355     1.90100
O142        O  0.60012999  0.17702886  0.09086043    -0.73800
O143        O  0.61617822  0.11971496  0.16275129    -0.73600
O144        O  0.63053419  0.13674587  0.08019388    -0.79300
O145        O  0.65786069  0.11948113  0.15542598    -0.77500
O146        O  0.63480808  0.16744648  0.15286842    -1.13600
O147        O  0.66767325  0.15470814  0.21458451    -0.72800
C148        C  0.66345332  0.17361013  0.23949936     0.97900
C149        C  0.59375411  0.19940364  0.10247896     0.94300
Al150      Al  0.60970923  0.14975384  0.12843503     1.55600
O151        O  0.65175658  0.21493044  0.14127658    -0.77400
C152        C  0.63737177  0.10775137  0.16327398     0.98500
C153        C  0.58381087  0.17284032  0.20613326     0.93400
O154        O  0.60392542  0.18435296  0.21710979    -0.82700
O155        O  0.60961828  0.15996408  0.60064533    -0.82200
C156        C  0.67267504  0.13573983  0.74250919     0.97200
O157        O  0.65163169  0.12500839  0.73354127    -0.71300
O158        O  0.61724338  0.16110646  0.72742880    -0.74900
Al159      Al  0.62577901  0.13353415  0.69086803     1.49000
C160        C  0.60448500  0.18010286  0.71439935     0.92400
O161        O  0.65848035  0.20242117  0.65613430    -0.81100
O162        O  0.67494744  0.13818893  0.59052087    -0.74700
Al163      Al  0.63393207  0.17946472  0.63088427     1.90100
O164        O  0.69178410  0.17757003  0.64307193    -0.73800
O165        O  0.67362661  0.10574238  0.65717899    -0.73600
O166        O  0.68536169  0.14687481  0.71302665    -0.79300
O167        O  0.63178572  0.10395779  0.65774631    -0.77500
O168        O  0.64630870  0.15216003  0.65811439    -1.13600
O169        O  0.59523941  0.13805400  0.65545522    -0.72800
C170        C  0.59254679  0.14631935  0.61699541     0.97900
C171        C  0.68218359  0.19993616  0.64749073     0.94300
Al172      Al  0.67898528  0.14285870  0.65174538     1.55600
O173        O  0.60865484  0.18903713  0.67650673    -0.77400
C174        C  0.65312717  0.09301011  0.65321840     0.98500
C175        C  0.66648875  0.15525884  0.56503592     0.93400
O176        O  0.65466083  0.17485520  0.57944320    -0.82700
O177        O  0.79937615  0.63844949  0.31505267    -0.82200
C178        C  0.83673149  0.65318326  0.14753762     0.97200
O179        O  0.82547021  0.66659627  0.17631321    -0.71300
O180        O  0.79468532  0.67417065  0.24357256    -0.74900
Al181      Al  0.82910172  0.66178432  0.23793474     1.49000
C182        C  0.77322441  0.66416641  0.23612038     0.92400
O183        O  0.78455775  0.59195772  0.22210061    -0.81100
O184        O  0.83947664  0.57882171  0.24071727    -0.74700
Al185      Al  0.79464880  0.61673103  0.26459626     1.90100
O186        O  0.81226213  0.59544935  0.16961693    -0.73800
O187        O  0.87154991  0.61637417  0.23007631    -0.73600
O188        O  0.84585328  0.63132087  0.15631991    -0.79300
O189        O  0.86531512  0.65775309  0.23208160    -0.77500
O190        O  0.82141190  0.62855575  0.23476782    -1.13600
O191        O  0.83391954  0.66014801  0.29988487    -0.72800
C192        C  0.81825727  0.65159491  0.32761718     0.97900
C193        C  0.79195156  0.58588376  0.18448661     0.94300
Al194      Al  0.84052329  0.60741332  0.20211025     1.55600
O195        O  0.77092231  0.64014918  0.23781829    -0.77400
C196        C  0.88026385  0.63867355  0.23302538     0.98500
C197        C  0.83055414  0.57573291  0.27844578     0.93400
O198        O  0.81480587  0.59173188  0.29427659    -0.82700
O199        O  0.82194092  0.60157682  0.67799290    -0.82200
C200        C  0.85967018  0.65101704  0.82608831     0.97200
O201        O  0.87038637  0.63127774  0.80941839    -0.71300
O202        O  0.83426021  0.59829488  0.80142511    -0.74900
Al203      Al  0.85865096  0.60947735  0.76186955     1.49000
C204        C  0.81205184  0.59069791  0.79371433     0.92400
O205        O  0.78942532  0.64966797  0.75299184    -0.81100
O206        O  0.84926694  0.66683513  0.67821014    -0.74700
Al207      Al  0.80806016  0.62556051  0.71722622     1.90100
O208        O  0.81418795  0.68155719  0.73904592    -0.73800
O209        O  0.88482283  0.65886737  0.74011971    -0.73600
O210        O  0.84688654  0.66611544  0.80191503    -0.79300
O211        O  0.88673045  0.61803242  0.72550513    -0.77500
O212        O  0.83819609  0.63338357  0.73944437    -1.13600
O213        O  0.84960810  0.58241811  0.72017966    -0.72800
C214        C  0.83509757  0.58212645  0.68691659     0.97900
C215        C  0.79209061  0.67348084  0.74816837     0.94300
Al216      Al  0.84807312  0.66582324  0.73992897     1.55600
O217        O  0.79993635  0.59871490  0.76032824    -0.77400
C218        C  0.89799259  0.63907907  0.73062875     0.98500
C219        C  0.83061508  0.66114023  0.65366443     0.93400
O220        O  0.81131728  0.64933486  0.66890435    -0.82700
O221        O  0.15479399  0.66204949  0.16815102    -0.82200
C222        C  0.11518617  0.67689744  0.33143792     0.97200
O223        O  0.12525336  0.69012651  0.30181576    -0.71300
O224        O  0.15613988  0.69791931  0.23524943    -0.74900
Al225      Al  0.12170115  0.68470557  0.24077384     1.49000
C226        C  0.17740540  0.68810893  0.24659007     0.92400
O227        O  0.16896413  0.61552117  0.26140876    -0.81100
O228        O  0.11678600  0.60168404  0.23963863    -0.74700
Al229      Al  0.15902361  0.64030320  0.21827540     1.90100
O230        O  0.14043297  0.62112002  0.31250611    -0.73800
O231        O  0.08244019  0.63773959  0.24642340    -0.73600
O232        O  0.10489462  0.65564484  0.32258207    -0.79300
O233        O  0.08485683  0.67942103  0.24650798    -0.77500
O234        O  0.13102516  0.65181369  0.24529076    -1.13600
O235        O  0.11795336  0.68210127  0.17894519    -0.72800
C236        C  0.13579294  0.67475223  0.15363135     0.97900
C237        C  0.16048948  0.61034283  0.29878065     0.94300
Al238      Al  0.11264315  0.63086076  0.27743401     1.55600
O239        O  0.17999489  0.66409676  0.24789718    -0.77400
C240        C  0.07157366  0.65926651  0.24515916     0.98500
C241        C  0.12704395  0.59778861  0.20287888     0.93400
O242        O  0.14123215  0.61472354  0.18661100    -0.82700
O243        O  0.16756941  0.60311899  0.79738925    -0.82200
C244        C  0.13227017  0.65797115  0.65103089     0.97200
O245        O  0.12604719  0.63566512  0.66258605    -0.71300
O246        O  0.16685190  0.60599768  0.67217241    -0.74900
Al247      Al  0.13762912  0.61276044  0.70740758     1.49000
C248        C  0.18853545  0.59878173  0.68597421     0.92400
O249        O  0.20069421  0.65696775  0.73956767    -0.81100
O250        O  0.13488360  0.66652058  0.80222158    -0.74700
Al251      Al  0.18195683  0.63014384  0.76656234     1.90100
O252        O  0.17162687  0.68657096  0.74925685    -0.73800
O253        O  0.10456838  0.65839590  0.73453020    -0.73600
O254        O  0.14304994  0.67264065  0.67849452    -0.79300
O255        O  0.10586450  0.61658342  0.73846891    -0.77500
O256        O  0.15316656  0.63701538  0.73824009    -1.13600
O257        O  0.14690423  0.58432744  0.74494950    -0.72800
C258        C  0.15855945  0.58317925  0.78101405     0.97900
C259        C  0.19501685  0.68018491  0.74607969     0.94300
Al260      Al  0.13971187  0.66846984  0.74069878     1.55600
O261        O  0.19606368  0.60654822  0.72298915    -0.77400
C262        C  0.09305381  0.63732962  0.73805554     0.98500
C263        C  0.15220227  0.66116255  0.82969842     0.93400
O264        O  0.17322316  0.65092302  0.81739056    -0.82700
O265        O  0.83103228  0.34711419  0.43293513    -0.82200
C266        C  0.86800297  0.34868163  0.60112378     0.97200
O267        O  0.86026529  0.33228868  0.57398978    -0.71300
O268        O  0.82987200  0.31773410  0.51083863    -0.74900
Al269      Al  0.86375336  0.33282866  0.51242255     1.49000
C270        C  0.80794419  0.32732613  0.51920312     0.92400
O271        O  0.81283605  0.40133826  0.51273146    -0.81100
O272        O  0.86573581  0.41443233  0.49008800    -0.74700
Al273      Al  0.82468884  0.37291686  0.47720358     1.90100
O274        O  0.84064061  0.40176175  0.56564239    -0.73800
O275        O  0.90124598  0.38140415  0.50936574    -0.73600
O276        O  0.87635416  0.36995342  0.58765916    -0.79300
O277        O  0.90023288  0.33995624  0.51619360    -0.77500
O278        O  0.85272297  0.36528927  0.50854847    -1.13600
O279        O  0.86853181  0.33092637  0.45107706    -0.72800
C280        C  0.85224171  0.33678231  0.42231586     0.97900
C281        C  0.82079598  0.41073462  0.54809963     0.94300
Al282      Al  0.86963168  0.38972700  0.53581027     1.55600
O283        O  0.80374347  0.35077595  0.51147283    -0.77400
C284        C  0.91276069  0.36019722  0.50977667     0.98500
C285        C  0.85591469  0.41483175  0.45247120     0.93400
O286        O  0.84215570  0.39634422  0.44031325    -0.82700
O287        O  0.81718901  0.36573042  0.94233827    -0.82200
C288        C  0.86433166  0.35978056  0.09998729     0.97200
O289        O  0.85431296  0.34481882  0.07264557    -0.71300
O290        O  0.82312700  0.33087060  0.00948081    -0.74900
Al291      Al  0.85533815  0.34889732  0.01163681     1.49000
C292        C  0.80176495  0.33789607  0.02496207     0.92400
O293        O  0.80113937  0.41054207  0.03920047    -0.81100
O294        O  0.84982302  0.43275184  0.00521201    -0.74700
Al295      Al  0.81202074  0.38726806  0.99390798     1.90100
O296        O  0.83406071  0.41275177  0.08238695    -0.73800
O297        O  0.89015204  0.39939726  0.00695309    -0.73600
O298        O  0.87288780  0.38149724  0.08853388    -0.79300
O299        O  0.89086373  0.35802032  0.01378691    -0.77500
O300        O  0.84261152  0.38058864  0.01602354    -1.13600
O301        O  0.85679716  0.35135491  0.94995938    -0.72800
C302        C  0.83767687  0.35637869  0.92586901     0.97900
C303        C  0.81101397  0.41816062  0.07433531     0.94300
Al304      Al  0.86045726  0.40458607  0.04315678     1.55600
O305        O  0.79637139  0.36135479  0.02708871    -0.77400
C306        C  0.90262543  0.37853385  0.00642757     0.98500
C307        C  0.83486527  0.43416928  0.97265115     0.93400
O308        O  0.82340940  0.41455773  0.95950758    -0.82700
O309        O  0.18229157  0.36374984  0.06705924    -0.82200
C310        C  0.13709956  0.35891906  0.90604522     0.97200
O311        O  0.15001074  0.34419824  0.93044428    -0.71300
O312        O  0.18346105  0.33187287  0.99092710    -0.74900
Al313      Al  0.14868045  0.34361882  0.99286165     1.49000
C314        C  0.20484334  0.34225913  0.98468369     0.92400
O315        O  0.19018296  0.41557335  0.98094351    -0.81100
O316        O  0.13792619  0.42597106  0.01260196    -0.74700
Al317      Al  0.18370810  0.38806633  0.02144940     1.90100
O318        O  0.15861353  0.41211612  0.93420808    -0.73800
O319        O  0.10575250  0.38817446  0.00534483    -0.73600
O320        O  0.12464220  0.37719858  0.92315642    -0.79300
O321        O  0.11128522  0.34717159  0.99340288    -0.77500
O322        O  0.15543690  0.37693807  0.99545889    -1.13600
O323        O  0.14814714  0.34053501  0.05543111    -0.72800
C324        C  0.16594087  0.34797578  0.08062465     0.97900
C325        C  0.17925399  0.42213443  0.94585038     0.94300
Al326      Al  0.13364140  0.39895173  0.97110408     1.55600
O327        O  0.20655485  0.36641292  0.98741358    -0.77400
C328        C  0.09668821  0.36604389  0.00241830     0.98500
C329        C  0.14859314  0.42732167  0.04935759     0.93400
O330        O  0.16502776  0.41055706  0.05989244    -0.82700
O331        O  0.17466209  0.42694169  0.43931553    -0.82200
C332        C  0.14660286  0.36496582  0.57938597     0.97200
O333        O  0.13427688  0.38482230  0.56756324    -0.71300
O334        O  0.16708140  0.42202830  0.56145985    -0.74900
Al335      Al  0.14178489  0.40952573  0.52304835     1.49000
C336        C  0.18923526  0.43035053  0.55344804     0.92400
O337        O  0.21479675  0.37723391  0.49646997    -0.81100
O338        O  0.15424669  0.35709113  0.42905378    -0.74700
Al339      Al  0.19192766  0.40122052  0.47007834     1.90100
O340        O  0.19177216  0.34346674  0.48513299    -0.73800
O341        O  0.12088961  0.35840040  0.49347364    -0.73600
O342        O  0.15995448  0.35210450  0.55235127    -0.79300
O343        O  0.11275347  0.39923045  0.48816075    -0.77500
O344        O  0.16375206  0.38902136  0.49443644    -1.13600
O345        O  0.14596302  0.43941797  0.48659707    -0.72800
C346        C  0.16003717  0.44401549  0.45409514     0.97900
C347        C  0.21332488  0.35348659  0.49056781     0.94300
Al348      Al  0.15726899  0.35563238  0.49059575     1.55600
O349        O  0.19996778  0.42441366  0.51781688    -0.77400
C350        C  0.10505208  0.37627665  0.48672414     0.98500
C351        C  0.17068345  0.36640228  0.40341921     0.93400
O352        O  0.18831485  0.38093764  0.41732208    -0.82700
C353        C  0.13689520  0.35556682  0.85727000     0.00900
C354        C  0.12980186  0.37644002  0.82952084     0.03800
C355        C  0.13260700  0.37429917  0.78405807    -0.12300
C356        C  0.14134483  0.35128701  0.76507653     0.23100
C357        C  0.14724034  0.33015507  0.79162591    -0.12900
C358        C  0.14514332  0.33215131  0.83742794     0.04500
C359        C  0.14359045  0.34970710  0.71680649     0.26900
C360        C  0.12117149  0.34802456  0.69147018    -0.13600
C361        C  0.12202398  0.35325654  0.64659742     0.05000
C362        C  0.14574541  0.35757325  0.62584790    -0.09500
C363        C  0.16845358  0.35779028  0.65088296     0.05800
C364        C  0.16730313  0.35427627  0.69636699    -0.13900
Br365      Br  0.15816460  0.29840045  0.76459055    -0.06000
Br366      Br  0.11617244  0.40880610  0.85104552    -0.00300
Br367      Br  0.09028157  0.35695862  0.61508801     0.00100
Br368      Br  0.19783720  0.35764184  0.73128235    -0.04300
Br369      Br  0.15264446  0.30187137  0.87145078     0.00200
Br370      Br  0.12489822  0.40336790  0.74691379    -0.03600
Br371      Br  0.08899151  0.34002485  0.71911098    -0.04500
Br372      Br  0.20064143  0.36650560  0.62392533    -0.00500
C373        C  0.16789557  0.34003277  0.12750198     0.00900
C374        C  0.14616090  0.33202905  0.15149156     0.03800
C375        C  0.14660150  0.33266222  0.19753063    -0.12300
C376        C  0.16874138  0.34062187  0.21978648     0.23100
C377        C  0.19136070  0.34505197  0.19635714    -0.12900
C378        C  0.19122823  0.34411609  0.15056307     0.04500
C379        C  0.16790157  0.34659644  0.26721693     0.26900
C380        C  0.16246073  0.37191449  0.28081275    -0.13600
C381        C  0.16330006  0.37842774  0.32534363     0.05000
C382        C  0.16967522  0.35965417  0.35659390    -0.09500
C383        C  0.17505037  0.33430189  0.34299640     0.05800
C384        C  0.17414125  0.32777754  0.29839806    -0.13900
Br385      Br  0.22225462  0.35398602  0.22743910    -0.06000
Br386      Br  0.11562785  0.32014430  0.12271703    -0.00300
Br387      Br  0.15512448  0.41299090  0.34331311     0.00100
Br388      Br  0.18203067  0.29328089  0.27971430    -0.04300
Br389      Br  0.22371442  0.34789253  0.12071426     0.00200
Br390      Br  0.11652996  0.32387779  0.23057986    -0.03600
Br391      Br  0.15430505  0.39778073  0.23794073    -0.04500
Br392      Br  0.18491908  0.30882211  0.38538121    -0.00500
C393        C  0.06844674  0.36329644  0.00468544     0.00900
C394        C  0.05448672  0.35957148  0.96580976     0.03800
C395        C  0.02777759  0.36371932  0.96504701    -0.12300
C396        C  0.01424817  0.36841776  0.00413046     0.23100
C397        C  0.02799629  0.36992525  0.04373858    -0.12900
C398        C  0.05506788  0.36880818  0.04358773     0.04500
C399        C  0.98568987  0.37163352  0.00320224     0.26900
C400        C  0.97414816  0.39583029  0.01066456    -0.13600
C401        C  0.94713105  0.39863095  0.01098547     0.05000
C402        C  0.93127122  0.37748140  0.00037682    -0.09500
C403        C  0.94338181  0.35396893  0.98822036     0.05800
C404        C  0.97009927  0.35068144  0.99253376    -0.13900
Br405      Br  0.00977418  0.37346697  0.09815198    -0.06000
Br406      Br  0.07174465  0.34942721  0.91288633    -0.00300
Br407      Br  0.93285233  0.43157926  0.02750603     0.00100
Br408      Br  0.98538282  0.31702974  0.98490222    -0.04300
Br409      Br  0.07389173  0.37530319  0.09643653     0.00200
Br410      Br  0.00996028  0.36461092  0.90985796    -0.03600
Br411      Br  0.99560438  0.42529422  0.02018122    -0.04500
Br412      Br  0.92429844  0.32641463  0.96173535    -0.00500
C413        C  0.94119505  0.35965934  0.50366187     0.00900
C414        C  0.95656315  0.37797814  0.52542832     0.03800
C415        C  0.98330224  0.37812381  0.51928895    -0.12300
C416        C  0.99497387  0.36129227  0.48919611     0.23100
C417        C  0.97987827  0.34312430  0.46710621    -0.12900
C418        C  0.95322242  0.34180427  0.47515174     0.04500
C419        C  0.02327312  0.36258904  0.48218761     0.26900
C420        C  0.03384645  0.38242900  0.45711243    -0.13600
C421        C  0.06063218  0.38621903  0.45648830     0.05000
C422        C  0.07721502  0.36989208  0.48048542    -0.09500
C423        C  0.06653136  0.34768368  0.50015109     0.05800
C424        C  0.03971862  0.34497824  0.50297840    -0.13900
Br425      Br  0.99585388  0.32023361  0.42544494    -0.06000
Br426      Br  0.94168673  0.40296399  0.56482511    -0.00300
Br427      Br  0.07446203  0.41219351  0.41905790     0.00100
Br428      Br  0.02528344  0.31782467  0.53759800    -0.04300
Br429      Br  0.93345030  0.31599549  0.44556996     0.00200
Br430      Br  0.00438074  0.40091958  0.55337180    -0.03600
Br431      Br  0.01130829  0.40461407  0.42417209    -0.04500
Br432      Br  0.08750692  0.31965949  0.52183720    -0.00500
C433        C  0.86607907  0.34386803  0.64932622     0.00900
C434        C  0.84644960  0.32816453  0.66680617     0.03800
C435        C  0.84122057  0.32838219  0.71193685    -0.12300
C436        C  0.85621904  0.34306011  0.74047649     0.23100
C437        C  0.87718095  0.35672000  0.72405791    -0.12900
C438        C  0.88223330  0.35704469  0.67893014     0.04500
C439        C  0.84943302  0.34507034  0.78757327     0.26900
C440        C  0.83515131  0.36634224  0.80260814    -0.13600
C441        C  0.83045544  0.36976450  0.84744935     0.05000
C442        C  0.83958155  0.35145046  0.87795323    -0.09500
C443        C  0.85222266  0.32908673  0.86219304     0.05800
C444        C  0.85761291  0.32623190  0.81735544    -0.13900
Br445      Br  0.89859003  0.37564401  0.76387035    -0.06000
Br446      Br  0.82620811  0.30588724  0.63064482    -0.00300
Br447      Br  0.81259747  0.40052061  0.86560116     0.00100
Br448      Br  0.87666943  0.29675696  0.79650339    -0.04300
Br449      Br  0.91244529  0.37448013  0.65904955     0.00200
Br450      Br  0.81261283  0.30947865  0.73493907    -0.03600
Br451      Br  0.82241588  0.39119077  0.76132380    -0.04500
Br452      Br  0.86083912  0.30141329  0.90130110    -0.00500
C453        C  0.85872089  0.33366447  0.37550378     0.00900
C454        C  0.84373467  0.31825361  0.34789366     0.03800
C455        C  0.84769360  0.31861000  0.30244196    -0.12300
C456        C  0.86532178  0.33583695  0.28404492     0.23100
C457        C  0.88095067  0.35058873  0.31172592    -0.12900
C458        C  0.87830402  0.34878703  0.35732135     0.04500
C459        C  0.86511625  0.34074164  0.23615860     0.26900
C460        C  0.88583747  0.33300310  0.20924884    -0.13600
C461        C  0.88594218  0.33956236  0.16462516     0.05000
C462        C  0.86468181  0.35239914  0.14633654    -0.09500
C463        C  0.84307204  0.35790231  0.17235115     0.05800
C464        C  0.84390823  0.35362781  0.21744968    -0.13900
Br465      Br  0.90403170  0.37540643  0.28722096    -0.06000
Br466      Br  0.81734637  0.29715332  0.37214663    -0.00300
Br467      Br  0.91461845  0.33029823  0.12796874     0.00100
Br468      Br  0.81627866  0.36647779  0.25364358    -0.04300
Br469      Br  0.89971080  0.36951652  0.39441471     0.00200
Br470      Br  0.82817132  0.29633659  0.26496096    -0.03600
Br471      Br  0.91382128  0.31323979  0.23336744    -0.04500
Br472      Br  0.81151172  0.36948326  0.14595508    -0.00500
C473        C  0.16400484  0.55823623  0.80260639     0.00900
C474        C  0.18845367  0.55363366  0.82201896     0.03800
C475        C  0.19474177  0.52935184  0.83840000    -0.12300
C476        C  0.17607499  0.51033273  0.84031086     0.23100
C477        C  0.15156776  0.51477032  0.82245522    -0.12900
C478        C  0.14574403  0.53839404  0.80244619     0.04500
C479        C  0.18117962  0.48748768  0.86732924     0.26900
C480        C  0.18735597  0.46365175  0.84820809    -0.13600
C481        C  0.18973553  0.44181259  0.87465912     0.05000
C482        C  0.18779383  0.44419180  0.92032390    -0.09500
C483        C  0.18527412  0.46870962  0.93935357     0.05800
C484        C  0.18050194  0.49007088  0.91298022    -0.13900
Br485      Br  0.12567723  0.48881971  0.82757906    -0.06000
Br486      Br  0.21388144  0.57995913  0.82946645    -0.00300
Br487      Br  0.19440418  0.40841614  0.84857730     0.00100
Br488      Br  0.17105318  0.52256247  0.93939530    -0.04300
Br489      Br  0.11195410  0.54392841  0.77848739     0.00200
Br490      Br  0.22889820  0.52203752  0.86016525    -0.03600
Br491      Br  0.19170251  0.46090602  0.78604856    -0.04500
Br492      Br  0.18643061  0.47319352  0.00153326    -0.00500
C493        C  0.20269302  0.57782007  0.66150956     0.00900
C494        C  0.22071942  0.56158428  0.68275114     0.03800
C495        C  0.22410124  0.53584795  0.66891891    -0.12300
C496        C  0.21048444  0.52658461  0.63259958     0.23100
C497        C  0.19628141  0.54400713  0.60705402    -0.12900
C498        C  0.19345018  0.56975747  0.62039152     0.04500
C499        C  0.21013509  0.49867337  0.62134867     0.26900
C500        C  0.22724921  0.48820080  0.59042030    -0.13600
C501        C  0.22301536  0.46354213  0.57272861     0.05000
C502        C  0.20064874  0.44980221  0.58423771    -0.09500
C503        C  0.18677279  0.45834174  0.62149980     0.05800
C504        C  0.19100066  0.48298664  0.63900606    -0.13900
Br505      Br  0.17931345  0.53203910  0.55511656    -0.06000
Br506      Br  0.24271150  0.57480123  0.72760119    -0.00300
Br507      Br  0.24904485  0.44819564  0.53612580     0.00100
Br508      Br  0.16962738  0.49607622  0.68560155    -0.04300
Br509      Br  0.17914965  0.59439080  0.58040250     0.00200
Br510      Br  0.24656101  0.51292502  0.70040580    -0.03600
Br511      Br  0.25588470  0.50825064  0.57115298    -0.04500
Br512      Br  0.16287498  0.43625389  0.65101539    -0.00500
C513        C  0.14802230  0.66704393  0.87680037     0.00900
C514        C  0.14091557  0.69204609  0.89061860     0.03800
C515        C  0.13699404  0.69740851  0.93536921    -0.12300
C516        C  0.14070882  0.67801415  0.96665476     0.23100
C517        C  0.14793694  0.65320815  0.95297727    -0.12900
C518        C  0.15105150  0.64760202  0.90843715     0.04500
C519        C  0.13730149  0.68306447  0.01419726     0.26900
C520        C  0.15832966  0.69096810  0.03948400    -0.13600
C521        C  0.15702434  0.69019567  0.08533674     0.05000
C522        C  0.13496414  0.68063176  0.10627366    -0.09500
C523        C  0.11337267  0.67413364  0.08089727     0.05800
C524        C  0.11440078  0.67592095  0.03506704    -0.13900
Br525      Br  0.15377764  0.62673489  0.99580226    -0.06000
Br526      Br  0.13760187  0.71930480  0.84863417    -0.00300
Br527      Br  0.18568835  0.70211536  0.11938238     0.00100
Br528      Br  0.08497284  0.66708806  0.00031476    -0.04300
Br529      Br  0.15761186  0.61259789  0.89176872     0.00200
Br530      Br  0.12661530  0.73124157  0.95413704    -0.03600
Br531      Br  0.18952426  0.70125237  0.01100496    -0.04500
Br532      Br  0.08344432  0.65980259  0.10800177    -0.00500
C533        C  0.12657812  0.66634481  0.60492241     0.00900
C534        C  0.12685071  0.69268024  0.59287814     0.03800
C535        C  0.12408350  0.69994426  0.54875483    -0.12300
C536        C  0.12026425  0.68129629  0.51634373     0.23100
C537        C  0.11778907  0.65548503  0.52816904    -0.12900
C538        C  0.12035721  0.64794990  0.57196177     0.04500
C539        C  0.11924420  0.68806311  0.46926879     0.26900
C540        C  0.09539034  0.69066078  0.44807731    -0.13600
C541        C  0.09395629  0.68845435  0.40233630     0.05000
C542        C  0.11654197  0.68523736  0.37755504    -0.09500
C543        C  0.14059877  0.68635974  0.39853743     0.05800
C544        C  0.14191129  0.68699447  0.44436088    -0.13900
Br545      Br  0.11104099  0.63020739  0.48326981    -0.06000
Br546      Br  0.12825160  0.71958951  0.63610817    -0.00300
Br547      Br  0.06108478  0.68906691  0.37364927     0.00100
Br548      Br  0.17461222  0.68381368  0.47337137    -0.04300
Br549      Br  0.11376302  0.61219003  0.58414802     0.00200
Br550      Br  0.12526045  0.73552952  0.53214496    -0.03600
Br551      Br  0.06473287  0.69575196  0.48222104    -0.04500
Br552      Br  0.17187567  0.68454681  0.36509586    -0.00500
C553        C  0.16163501  0.47009952  0.43493305     0.00900
C554        C  0.13946952  0.48510947  0.42657800     0.03800
C555        C  0.14174882  0.50923597  0.40647345    -0.12300
C556        C  0.16616195  0.51894456  0.39670692     0.23100
C557        C  0.18826296  0.50511537  0.40805176    -0.12900
C558        C  0.18616000  0.48050037  0.42558022     0.04500
C559        C  0.16891679  0.54307336  0.37229700     0.26900
C560        C  0.17451715  0.54221728  0.32741495    -0.13600
C561        C  0.17634496  0.56508922  0.30365267     0.05000
C562        C  0.17110445  0.58881092  0.32452868    -0.09500
C563        C  0.16867496  0.58952743  0.37033696     0.05800
C564        C  0.16742677  0.56671707  0.39413995    -0.13900
Br565      Br  0.22158174  0.52032830  0.39930203    -0.06000
Br566      Br  0.10592073  0.47255188  0.44056138    -0.00300
Br567      Br  0.18462633  0.56310360  0.24235316     0.00100
Br568      Br  0.16268333  0.56781605  0.45641389    -0.04300
Br569      Br  0.21777291  0.46210795  0.43624906     0.00200
Br570      Br  0.11155186  0.52899704  0.39148305    -0.03600
Br571      Br  0.17815892  0.50952584  0.29810279    -0.04500
Br572      Br  0.16693295  0.62172559  0.40078806    -0.00500
C573        C  0.14244682  0.44974702  0.07843850     0.00900
C574        C  0.16154393  0.46110117  0.10505267     0.03800
C575        C  0.15689114  0.48513028  0.12502410    -0.12300
C576        C  0.13317414  0.49786835  0.11945543     0.23100
C577        C  0.11352332  0.48586093  0.09596595    -0.12900
C578        C  0.11790882  0.46179746  0.07616392     0.04500
C579        C  0.12865924  0.52354985  0.13968984     0.26900
C580        C  0.12194350  0.52541941  0.18394450    -0.13600
C581        C  0.11988955  0.54958083  0.20446227     0.05000
C582        C  0.12417700  0.57241538  0.18029135    -0.09500
C583        C  0.12828097  0.57028922  0.13469376     0.05800
C584        C  0.13119645  0.54600449  0.11485985    -0.13900
Br585      Br  0.08051256  0.50273297  0.09086527    -0.06000
Br586      Br  0.19467775  0.44494642  0.11363205    -0.00300
Br587      Br  0.11219239  0.55006857  0.26613821     0.00100
Br588      Br  0.13925620  0.54335956  0.05358573    -0.04300
Br589      Br  0.08932350  0.44502619  0.04849654     0.00200
Br590      Br  0.18328840  0.50122366  0.15938151    -0.03600
Br591      Br  0.11607355  0.49439877  0.21651800    -0.04500
Br592      Br  0.12844898  0.60033563  0.09814478    -0.00500
C593        C  0.82864798  0.45922554  0.95142571     0.00900
C594        C  0.80259320  0.46631480  0.94387083     0.03800
C595        C  0.79630261  0.48969818  0.92358824    -0.12300
C596        C  0.81574331  0.50593827  0.90903094     0.23100
C597        C  0.84164728  0.49923842  0.91673786    -0.12900
C598        C  0.84809070  0.47618475  0.93845018     0.04500
C599        C  0.80905360  0.52806058  0.88038277     0.26900
C600        C  0.80576231  0.52381228  0.83547896    -0.13600
C601        C  0.80217948  0.54467074  0.80709050     0.05000
C602        C  0.80270289  0.57010013  0.82292606    -0.09500
C603        C  0.80354522  0.57408486  0.86847115     0.05800
C604        C  0.80636838  0.55312185  0.89715067    -0.13900
Br605      Br  0.86828262  0.52114017  0.89516884    -0.06000
Br606      Br  0.77466806  0.44451998  0.96054455    -0.00300
Br607      Br  0.79890522  0.53794725  0.74618220     0.00100
Br608      Br  0.80741452  0.55866635  0.95912195    -0.04300
Br609      Br  0.88361177  0.46700889  0.94713579     0.00200
Br610      Br  0.76084938  0.49933220  0.91398062    -0.03600
Br611      Br  0.80790004  0.48925661  0.81264639    -0.04500
Br612      Br  0.80221376  0.60855126  0.89110690    -0.00500
C613        C  0.92672978  0.63991410  0.73016598     0.00900
C614        C  0.94114804  0.62431957  0.70096753     0.03800
C615        C  0.96816277  0.62315379  0.70379921    -0.12300
C616        C  0.98120200  0.63753122  0.73556725     0.23100
C617        C  0.96712146  0.65327493  0.76440347    -0.12900
C618        C  0.94010583  0.65451419  0.76193420     0.04500
C619        C  0.00984302  0.63733851  0.73692402     0.26900
C620        C  0.02341105  0.62059029  0.76481413    -0.13600
C621        C  0.05051713  0.62089150  0.76620729     0.05000
C622        C  0.06435621  0.63736140  0.73847122    -0.09500
C623        C  0.05047666  0.65401264  0.71026517     0.05800
C624        C  0.02346808  0.65428804  0.71027514    -0.13900
Br625      Br  0.98520402  0.67303806  0.80772160    -0.06000
Br626      Br  0.92441417  0.60505236  0.65563123    -0.00300
Br627      Br  0.06834836  0.59992590  0.80829430     0.00100
Br628      Br  0.00478437  0.67810162  0.67372424    -0.04300
Br629      Br  0.92207844  0.67535242  0.80447263     0.00200
Br630      Br  0.98764311  0.60180676  0.66404894    -0.03600
Br631      Br  0.00462244  0.59733489  0.80122031    -0.04500
Br632      Br  0.06779908  0.67581017  0.66918348    -0.00500
C633        C  0.83112598  0.55837172  0.66006414     0.00900
C634        C  0.80613855  0.55264484  0.64364537     0.03800
C635        C  0.80107808  0.52849222  0.62517828    -0.12300
C636        C  0.82095579  0.51049475  0.61937108     0.23100
C637        C  0.84608733  0.51664496  0.63238962    -0.12900
C638        C  0.85106164  0.54010057  0.65374721     0.04500
C639        C  0.81514023  0.48464062  0.60139578     0.26900
C640        C  0.81401647  0.46337753  0.62948008    -0.13600
C641        C  0.81151644  0.43856512  0.61211506     0.05000
C642        C  0.81000531  0.43481967  0.56669174    -0.09500
C643        C  0.80666688  0.45641048  0.53946284     0.05800
C644        C  0.81019644  0.48124155  0.55655048    -0.13900
Br645      Br  0.87366792  0.49253631  0.62128266    -0.06000
Br646      Br  0.77708271  0.57583210  0.64996896    -0.00300
Br647      Br  0.81104491  0.40931605  0.65019673     0.00100
Br648      Br  0.81007017  0.51041703  0.51802854    -0.04300
Br649      Br  0.88537083  0.54680536  0.67378772     0.00200
Br650      Br  0.76629493  0.51903208  0.61063323    -0.03600
Br651      Br  0.81708639  0.46814244  0.69158323    -0.04500
Br652      Br  0.79851248  0.45238129  0.47851643    -0.00500
C653        C  0.83802524  0.55252233  0.30347699     0.00900
C654        C  0.86415356  0.54555359  0.30862292     0.03800
C655        C  0.87097806  0.52264324  0.33020973    -0.12300
C656        C  0.85179552  0.50685228  0.34751790     0.23100
C657        C  0.82579005  0.51382108  0.34259328    -0.12900
C658        C  0.81891302  0.53644735  0.32056791     0.04500
C659        C  0.85842394  0.48316895  0.37213984     0.26900
C660        C  0.85532079  0.45909208  0.35245506    -0.13600
C661        C  0.85470471  0.43672980  0.37805903     0.05000
C662        C  0.85927867  0.43798040  0.42380859    -0.09500
C663        C  0.86518868  0.46237646  0.44242625     0.05800
C664        C  0.86411318  0.48473057  0.41675112    -0.13900
Br665      Br  0.79944872  0.49202429  0.36591921    -0.06000
Br666      Br  0.89081274  0.56788196  0.28828936    -0.00300
Br667      Br  0.84604068  0.40526111  0.34877412     0.00100
Br668      Br  0.86903213  0.51809775  0.44294262    -0.04300
Br669      Br  0.78308572  0.54443284  0.31224117     0.00200
Br670      Br  0.90653936  0.51265284  0.33592386    -0.03600
Br671      Br  0.85088779  0.45725394  0.29000399    -0.04500
Br672      Br  0.87289774  0.46695172  0.50364628    -0.00500
C673        C  0.90825409  0.64283139  0.23508015     0.00900
C674        C  0.92481627  0.62990389  0.20553021     0.03800
C675        C  0.95120662  0.63507534  0.20564375    -0.12300
C676        C  0.96119226  0.65323279  0.23484793     0.23100
C677        C  0.94480657  0.66635563  0.26392457    -0.12900
C678        C  0.91841900  0.66115300  0.26421805     0.04500
C679        C  0.98928155  0.65628527  0.23853701     0.26900
C680        C  0.00279666  0.64089360  0.26825985    -0.13600
C681        C  0.02945844  0.64306904  0.27206684     0.05000
C682        C  0.04309388  0.66008975  0.24476607    -0.09500
C683        C  0.02925344  0.67641116  0.21634023     0.05800
C684        C  0.00236411  0.67434438  0.21309503    -0.13900
Br685      Br  0.95890631  0.69094276  0.30422973    -0.06000
Br686      Br  0.91169265  0.60600871  0.16298457    -0.00300
Br687      Br  0.04642739  0.62359690  0.31731920     0.00100
Br688      Br  0.98326672  0.69570017  0.17320177    -0.04300
Br689      Br  0.89672848  0.67827925  0.30644560     0.00200
Br690      Br  0.97399324  0.61702761  0.16622629    -0.03600
Br691      Br  0.98450621  0.61638920  0.30341137    -0.04500
Br692      Br  0.04673371  0.70125987  0.18118321    -0.00500
C693        C  0.82191189  0.65671066  0.37538361     0.00900
C694        C  0.81827514  0.63687307  0.40634357     0.03800
C695        C  0.82139245  0.64161354  0.45119764    -0.12300
C696        C  0.82807127  0.66610953  0.46616507     0.23100
C697        C  0.83222218  0.68586395  0.43593497    -0.12900
C698        C  0.82909197  0.68129064  0.39076683     0.04500
C699        C  0.83011500  0.67059981  0.51405261     0.26900
C700        C  0.80787540  0.67612763  0.53849608    -0.13600
C701        C  0.80841571  0.67471417  0.58434880     0.05000
C702        C  0.83126642  0.66759632  0.60627801    -0.09500
C703        C  0.85413245  0.66445839  0.58167011     0.05800
C704        C  0.85341826  0.66572139  0.53576138    -0.13900
Br705      Br  0.84212936  0.71918284  0.45692207    -0.06000
Br706      Br  0.81003530  0.60245605  0.38904756    -0.00300
Br707      Br  0.77773249  0.68301447  0.61681334     0.00100
Br708      Br  0.88402893  0.65902802  0.50202813    -0.04300
Br709      Br  0.83327073  0.70939575  0.35082476     0.00200
Br710      Br  0.81675638  0.61430171  0.49296075    -0.03600
Br711      Br  0.77630127  0.68428717  0.50861227    -0.04500
Br712      Br  0.88643097  0.65671736  0.60953059    -0.00500
C713        C  0.83982976  0.66242657  0.10251688     0.00900
C714        C  0.81976925  0.65939845  0.07237195     0.03800
C715        C  0.82451970  0.66174515  0.02746222    -0.12300
C716        C  0.84948607  0.66678686  0.01250612     0.23100
C717        C  0.86916492  0.67169583  0.04272810    -0.12900
C718        C  0.86434868  0.66943799  0.08769519     0.04500
C719        C  0.85547703  0.66380330  0.96540884     0.26900
C720        C  0.86298698  0.63962237  0.94928915    -0.13600
C721        C  0.86603628  0.63557460  0.90415380     0.05000
C722        C  0.86134818  0.65599127  0.87429471    -0.09500
C723        C  0.85604325  0.68087166  0.89153042     0.05800
C724        C  0.85262069  0.68450961  0.93672690    -0.13900
Br725      Br  0.90296646  0.68009814  0.02222040    -0.06000
Br726      Br  0.78637670  0.64970910  0.09230277    -0.00300
Br727      Br  0.87577512  0.60133727  0.88553335     0.00100
Br728      Br  0.84320108  0.71775660  0.95987405    -0.04300
Br729      Br  0.89162231  0.67469237  0.12902580     0.00200
Br730      Br  0.79722722  0.65649907  0.98609572    -0.03600
Br731      Br  0.86800217  0.61162955  0.98973815    -0.04500
Br732      Br  0.85459995  0.71079449  0.85467337    -0.00500
C733        C  0.77936927  0.56452350  0.16011684     0.00900
C734        C  0.78999495  0.55557604  0.12035655     0.03800
C735        C  0.78809901  0.52953822  0.10899100    -0.12300
C736        C  0.77470556  0.51269400  0.13627605     0.23100
C737        C  0.75998100  0.52252832  0.17091976    -0.12900
C738        C  0.76138788  0.54872034  0.18176554     0.04500
C739        C  0.77940142  0.48478200  0.13163686     0.26900
C740        C  0.76345662  0.46944733  0.10573936    -0.13600
C741        C  0.77179409  0.44475882  0.09308341     0.05000
C742        C  0.79691316  0.43628929  0.10389609    -0.09500
C743        C  0.81028038  0.44964970  0.13710585     0.05800
C744        C  0.80175417  0.47413196  0.15010252    -0.13900
Br745      Br  0.73990084  0.49958371  0.20589619    -0.06000
Br746      Br  0.80737617  0.57843803  0.08102555    -0.00300
Br747      Br  0.74830209  0.42244716  0.06318347     0.00100
Br748      Br  0.82177700  0.49422478  0.19048035    -0.04300
Br749      Br  0.73826628  0.56244201  0.22528636     0.00200
Br750      Br  0.80609565  0.51614365  0.05864896    -0.03600
Br751      Br  0.73108593  0.48295446  0.08548664    -0.04500
Br752      Br  0.84022775  0.43528197  0.16567942    -0.00500
C753        C  0.69847291  0.22292815  0.63724187     0.00900
C754        C  0.68989375  0.24167850  0.60683497     0.03800
C755        C  0.70690392  0.26033678  0.59049456    -0.12300
C756        C  0.73259929  0.26104652  0.60456615     0.23100
C757        C  0.74069865  0.24377068  0.63718510    -0.12900
C758        C  0.72401665  0.22454919  0.65273754     0.04500
C759        C  0.75150510  0.27844324  0.58246989     0.26900
C760        C  0.76665423  0.26904823  0.54771522    -0.13600
C761        C  0.78462422  0.28491649  0.52666647     0.05000
C762        C  0.78739273  0.31092363  0.53921567    -0.09500
C763        C  0.77157639  0.32052636  0.57348706     0.05800
C764        C  0.75414392  0.30427057  0.59528016    -0.13900
Br765      Br  0.77492519  0.24658843  0.66029292    -0.06000
Br766      Br  0.65551434  0.24109736  0.58375108    -0.00300
Br767      Br  0.80481866  0.27059016  0.47970138     0.00100
Br768      Br  0.73439222  0.31703699  0.64401735    -0.04300
Br769      Br  0.73648727  0.20035812  0.69528082     0.00200
Br770      Br  0.69538729  0.28455659  0.54708324    -0.03600
Br771      Br  0.76262917  0.23408503  0.52872575    -0.04500
Br772      Br  0.77494418  0.35541205  0.59374188    -0.00500
C773        C  0.69303323  0.22907913  0.12217936     0.00900
C774        C  0.70025584  0.22945422  0.07798288     0.03800
C775        C  0.71767615  0.24781194  0.06304542    -0.12300
C776        C  0.72735354  0.26635619  0.09201016     0.23100
C777        C  0.71932132  0.26664510  0.13587084    -0.12900
C778        C  0.70243854  0.24779763  0.15106236     0.04500
C779        C  0.74636130  0.28512500  0.07618964     0.26900
C780        C  0.77269159  0.28059635  0.08302927    -0.13600
C781        C  0.79095032  0.29736227  0.06553558     0.05000
C782        C  0.78289564  0.31890697  0.04082960    -0.09500
C783        C  0.75633400  0.32310175  0.03363437     0.05800
C784        C  0.73820876  0.30657791  0.05207584    -0.13900
Br785      Br  0.73129316  0.29303858  0.17479165    -0.06000
Br786      Br  0.68567921  0.20537906  0.03754278    -0.00300
Br787      Br  0.82674717  0.29057241  0.07720798     0.00100
Br788      Br  0.70199418  0.31331660  0.04473796    -0.04300
Br789      Br  0.69232258  0.24740651  0.21148928     0.00200
Br790      Br  0.72839961  0.24760929  0.00282147    -0.03600
Br791      Br  0.78361170  0.25134997  0.11701380    -0.04500
Br792      Br  0.74431953  0.35027409  0.99588021    -0.00500
C793        C  0.68113019  0.13577898  0.78878468     0.00900
C794        C  0.68232682  0.15905706  0.81222296     0.03800
C795        C  0.68110982  0.15896152  0.85824010    -0.12300
C796        C  0.67983462  0.13555484  0.88100978     0.23100
C797        C  0.68253487  0.11234342  0.85767075    -0.12900
C798        C  0.68290546  0.11245766  0.81170216     0.04500
C799        C  0.67339984  0.13526510  0.92859216     0.26900
C800        C  0.69255758  0.13791969  0.96044077    -0.13600
C801        C  0.68611253  0.13836824  0.00522873     0.05000
C802        C  0.65999910  0.13699205  0.01888059    -0.09500
C803        C  0.64125515  0.13146548  0.98649636     0.05800
C804        C  0.64786875  0.13150127  0.94181814    -0.13900
Br805      Br  0.68480615  0.08041377  0.88885795    -0.06000
Br806      Br  0.68431677  0.19108274  0.78131320    -0.00300
Br807      Br  0.71396058  0.13834674  0.04685908     0.00100
Br808      Br  0.62171552  0.12688289  0.89790173    -0.04300
Br809      Br  0.68608526  0.08072828  0.77970146     0.00200
Br810      Br  0.67967313  0.19084159  0.89014783    -0.03600
Br811      Br  0.72780239  0.14098299  0.94214928    -0.04500
Br812      Br  0.60666197  0.12181676  0.00137510    -0.00500
C813        C  0.67050590  0.15301064  0.51770093     0.00900
C814        C  0.68973342  0.16750610  0.49772904     0.03800
C815        C  0.69047863  0.16975684  0.45210500    -0.12300
C816        C  0.67205834  0.15725297  0.42627786     0.23100
C817        C  0.65373113  0.14142984  0.44619074    -0.12900
C818        C  0.65303914  0.13922648  0.49192665     0.04500
C819        C  0.67108671  0.16209549  0.37858627     0.26900
C820        C  0.65797713  0.18382616  0.36287080    -0.13600
C821        C  0.65736743  0.18910370  0.31787491     0.05000
C822        C  0.66899763  0.17172014  0.28753716    -0.09500
C823        C  0.68386818  0.15094443  0.30429655     0.05800
C824        C  0.68430836  0.14591048  0.34941513    -0.13900
Br825      Br  0.62887731  0.12385348  0.41083455    -0.06000
Br826      Br  0.71482372  0.18437766  0.53337111    -0.00300
Br827      Br  0.64124247  0.22102553  0.30034559     0.00100
Br828      Br  0.70263310  0.11642503  0.37178846    -0.04300
Br829      Br  0.62771258  0.11805611  0.51950328     0.00200
Br830      Br  0.71592660  0.19095493  0.42495868    -0.03600
Br831      Br  0.64013630  0.20605571  0.40369260    -0.04500
Br832      Br  0.70578294  0.13023293  0.26709785    -0.00500
C833        C  0.76933334  0.69187423  0.74808894     0.00900
C834        C  0.74384766  0.68323961  0.74052550     0.03800
C835        C  0.72391855  0.70093828  0.73043886    -0.12300
C836        C  0.72891331  0.72730442  0.72700680     0.23100
C837        C  0.75344360  0.73622372  0.73804342    -0.12900
C838        C  0.77325168  0.71883766  0.74982271     0.04500
C839        C  0.70862070  0.74551684  0.71048609     0.26900
C840        C  0.70516353  0.74888069  0.66520487    -0.13600
C841        C  0.68676112  0.76654654  0.64921581     0.05000
C842        C  0.67124891  0.78082726  0.67829963    -0.09500
C843        C  0.67448766  0.77733039  0.72364405     0.05800
C844        C  0.69308523  0.75980109  0.73963492    -0.13900
Br845      Br  0.76001956  0.77253603  0.73566203    -0.06000
Br846      Br  0.73515533  0.64737484  0.74277727    -0.00300
Br847      Br  0.68438596  0.77280131  0.58742980     0.00100
Br848      Br  0.69771134  0.75566770  0.80153937    -0.04300
Br849      Br  0.80517404  0.73283524  0.77052346     0.00200
Br850      Br  0.68943008  0.68924385  0.72031114    -0.03600
Br851      Br  0.72635532  0.72986386  0.62487987    -0.04500
Br852      Br  0.65326765  0.79657494  0.76394343    -0.00500
C853        C  0.63469241  0.93126781  0.62320925     0.00900
C854        C  0.61732613  0.94734594  0.60072474     0.03800
C855        C  0.62201864  0.97387733  0.59772522    -0.12300
C856        C  0.64396130  0.98437220  0.61757204     0.23100
C857        C  0.66213942  0.96800947  0.63729825    -0.12900
C858        C  0.65759088  0.94156146  0.64003190     0.04500
C859        C  0.64599872  0.01250639  0.62471335     0.26900
C860        C  0.66166256  0.02780010  0.59811387    -0.13600
C861        C  0.66517151  0.05398944  0.60824280     0.05000
C862        C  0.65308540  0.06491677  0.64520543    -0.09500
C863        C  0.63780879  0.04927143  0.67214992     0.05800
C864        C  0.63403494  0.02338051  0.66158333    -0.13900
Br865      Br  0.69248812  0.98228817  0.66346663    -0.06000
Br866      Br  0.58719919  0.93294076  0.57419014    -0.00300
Br867      Br  0.68567094  0.07492804  0.57051642     0.00100
Br868      Br  0.61247086  0.00249209  0.69802515    -0.04300
Br869      Br  0.68197263  0.91998675  0.67023219     0.00200
Br870      Br  0.59798863  0.99611573  0.56819486    -0.03600
Br871      Br  0.67798181  0.01273759  0.54767553    -0.04500
Br872      Br  0.62270886  0.06271867  0.72512228    -0.00500
C873        C  0.67113514  0.78366590  0.14401435     0.00900
C874        C  0.66007948  0.76205858  0.16490428     0.03800
C875        C  0.67567874  0.74148703  0.17930658    -0.12300
C876        C  0.70222408  0.74134798  0.17137015     0.23100
C877        C  0.71307061  0.76175207  0.14794986    -0.12900
C878        C  0.69773489  0.78286420  0.13467992     0.04500
C879        C  0.71881328  0.72040690  0.18978808     0.26900
C880        C  0.73251962  0.72463835  0.22868714    -0.13600
C881        C  0.74858360  0.70531462  0.24591135     0.05000
C882        C  0.75135337  0.68148163  0.22429915    -0.09500
C883        C  0.73550570  0.67627476  0.18798659     0.05800
C884        C  0.71989340  0.69591559  0.17007630    -0.13900
Br885      Br  0.74927671  0.76091622  0.13515661    -0.06000
Br886      Br  0.62380123  0.75998393  0.17670098    -0.00300
Br887      Br  0.76550408  0.71097970  0.30104659     0.00100
Br888      Br  0.70053069  0.68958537  0.11766271    -0.04300
Br889      Br  0.71336648  0.81035124  0.10269619     0.00200
Br890      Br  0.66096672  0.71390571  0.21267227    -0.03600
Br891      Br  0.72943504  0.75709880  0.25844425    -0.04500
Br892      Br  0.73456592  0.64235282  0.16291732    -0.00500
C893        C  0.62729683  0.94319195  0.16411113     0.00900
C894        C  0.61027360  0.96038976  0.14260597     0.03800
C895        C  0.61257965  0.98705636  0.14846462    -0.12300
C896        C  0.63202087  0.99701522  0.17516970     0.23100
C897        C  0.64858554  0.98007726  0.19754797    -0.12900
C898        C  0.64609957  0.95327776  0.19242775     0.04500
C899        C  0.63607217  0.02529543  0.17629743     0.26900
C900        C  0.65090850  0.03671195  0.14349346    -0.13600
C901        C  0.65156488  0.06358873  0.13954874     0.05000
C902        C  0.63828934  0.07944867  0.16980588    -0.09500
C903        C  0.62531595  0.06792644  0.20491694     0.05800
C904        C  0.62345180  0.04097120  0.20728145    -0.13900
Br905      Br  0.67505857  0.99380975  0.23437679    -0.06000
Br906      Br  0.58464626  0.94822802  0.10232270    -0.00300
Br907      Br  0.66938944  0.07815891  0.09053601     0.00100
Br908      Br  0.60283244  0.02542709  0.25185724    -0.04300
Br909      Br  0.66786651  0.93051793  0.22571507     0.00200
Br910      Br  0.58957770  0.01036741  0.11855779    -0.03600
Br911      Br  0.66962670  0.01521128  0.10286880    -0.04500
Br912      Br  0.61181171  0.08891141  0.25146766    -0.00500
C913        C  0.63737614  0.87556065  0.77981736     0.00900
C914        C  0.61756019  0.88353947  0.80892642     0.03800
C915        C  0.62191437  0.88426304  0.85417601    -0.12300
C916        C  0.64672454  0.88022136  0.87096742     0.23100
C917        C  0.66720714  0.87551555  0.84196023    -0.12900
C918        C  0.66257459  0.87232244  0.79682721     0.04500
C919        C  0.65076968  0.88020593  0.91923393     0.26900
C920        C  0.64907397  0.90325719  0.94329805    -0.13600
C921        C  0.64757272  0.90266439  0.98920388     0.05000
C922        C  0.64917147  0.87907890  0.01155544    -0.09500
C923        C  0.65429646  0.85637161  0.98754174     0.05800
C924        C  0.65406355  0.85682467  0.94156717    -0.13900
Br925      Br  0.70166856  0.87329205  0.86464708    -0.06000
Br926      Br  0.58469776  0.89597606  0.78800175    -0.00300
Br927      Br  0.64374228  0.93428896  0.02147966     0.00100
Br928      Br  0.65615865  0.82508054  0.90907846    -0.04300
Br929      Br  0.69116094  0.86279973  0.75993701     0.00200
Br930      Br  0.59343010  0.88987188  0.89357889    -0.03600
Br931      Br  0.64806893  0.93557425  0.91299678    -0.04500
Br932      Br  0.66002209  0.82410730  0.01689206    -0.00500
C933        C  0.64649260  0.84609036  0.27800274     0.00900
C934        C  0.66722651  0.83197994  0.29530244     0.03800
C935        C  0.67034789  0.82989747  0.34082756    -0.12300
C936        C  0.65233226  0.84146951  0.36927263     0.23100
C937        C  0.63180820  0.85600607  0.35179820    -0.12900
C938        C  0.62914849  0.85864061  0.30632183     0.04500
C939        C  0.65403044  0.83750457  0.41738413     0.26900
C940        C  0.64351843  0.81540745  0.43611477    -0.13600
C941        C  0.64190502  0.81306875  0.48177296     0.05000
C942        C  0.65017283  0.83321271  0.50941296    -0.09500
C943        C  0.66278309  0.85435657  0.49045823     0.05800
C944        C  0.66461157  0.85643603  0.44462650    -0.13900
Br945      Br  0.60677775  0.87154259  0.39027720    -0.06000
Br946      Br  0.69123693  0.81564069  0.25614335    -0.00300
Br947      Br  0.62868549  0.78173073  0.50596478     0.00100
Br948      Br  0.68066003  0.88577733  0.41858371    -0.04300
Br949      Br  0.60147424  0.87910864  0.28269263     0.00200
Br950      Br  0.69905256  0.81096034  0.36433159    -0.03600
Br951      Br  0.63022427  0.78878661  0.39881783    -0.04500
Br952      Br  0.67639682  0.88143431  0.52622125    -0.00500
C953        C  0.32750849  0.23140342  0.93698932     0.00900
C954        C  0.32947276  0.24902802  0.97200664     0.03800
C955        C  0.31144446  0.26934754  0.97665141    -0.12300
C956        C  0.29071148  0.27193116  0.94735038     0.23100
C957        C  0.28924457  0.25499014  0.91152368    -0.12900
C958        C  0.30774485  0.23520089  0.90592351     0.04500
C959        C  0.26922123  0.29064754  0.95681399     0.26900
C960        C  0.25081227  0.28450395  0.98858383    -0.13600
C961        C  0.23054010  0.30169413  0.99852607     0.05000
C962        C  0.22773997  0.32523034  0.97575389    -0.09500
C963        C  0.24620981  0.33133737  0.94366542     0.05800
C964        C  0.26693565  0.31425618  0.93462267    -0.13900
Br965      Br  0.26154004  0.25873813  0.87028314    -0.06000
Br966      Br  0.35597033  0.24473984  0.01535912    -0.00300
Br967      Br  0.20738596  0.29278846  0.04518608     0.00100
Br968      Br  0.29219878  0.32300564  0.89146204    -0.04300
Br969      Br  0.30675501  0.21446152  0.85385235     0.00200
Br970      Br  0.31484513  0.29374864  0.02360013    -0.03600
Br971      Br  0.25323052  0.25193839  0.01821842    -0.04500
Br972      Br  0.24248639  0.36228103  0.90996586    -0.00500
C973        C  0.46944537  0.17054518  0.87222739     0.00900
C974        C  0.47826218  0.19564480  0.86304516     0.03800
C975        C  0.50153587  0.19944025  0.84078102    -0.12300
C976        C  0.51633497  0.17838168  0.82667184     0.23100
C977        C  0.50864203  0.15341217  0.83784103    -0.12900
C978        C  0.48557395  0.14951602  0.86121845     0.04500
C979        C  0.53906749  0.18264072  0.79792290     0.26900
C980        C  0.53573214  0.18449058  0.75249744    -0.13600
C981        C  0.55707117  0.18786174  0.72483642     0.05000
C982        C  0.58222756  0.18827364  0.74216584    -0.09500
C983        C  0.58511575  0.18868543  0.78799878     0.05800
C984        C  0.56370336  0.18596445  0.81566779    -0.13900
Br985      Br  0.52964652  0.12458253  0.82001828    -0.06000
Br986      Br  0.45954874  0.22556616  0.88236993    -0.00300
Br987      Br  0.55128696  0.19083044  0.66327141     0.00100
Br988      Br  0.56816671  0.18608289  0.87792432    -0.04300
Br989      Br  0.47620701  0.11531825  0.87708087     0.00200
Br990      Br  0.51338651  0.23369033  0.82905712    -0.03600
Br991      Br  0.50177043  0.18116850  0.72818968    -0.04500
Br992      Br  0.61858449  0.19297832  0.81307071    -0.00500
C993        C  0.44335339  0.20772140  0.02135514     0.00900
C994        C  0.45498540  0.23077651  0.00815951     0.03800
C995        C  0.48063936  0.23557193  0.01958260    -0.12300
C996        C  0.49381783  0.21847979  0.04717481     0.23100
C997        C  0.48042634  0.19861100  0.06762207    -0.12900
C998        C  0.45486854  0.19379762  0.05595290     0.04500
C999        C  0.52187279  0.22032085  0.05353309     0.26900
C1000       C  0.53853870  0.20608810  0.02637941    -0.13600
C1001       C  0.56451467  0.20329650  0.03782940     0.05000
C1002       C  0.57340554  0.21346218  0.07764004    -0.09500
C1003       C  0.55812188  0.23231290  0.09873692     0.05800
C1004       C  0.53195771  0.23468607  0.08824264    -0.13900
Br1005     Br  0.49792456  0.17668593  0.10890287    -0.06000
Br1006     Br  0.43544874  0.25657891  0.97749799    -0.00300
Br1007     Br  0.58821836  0.18713645  0.99799795     0.00100
Br1008     Br  0.50954499  0.25576906  0.12356907    -0.04300
Br1009     Br  0.43588902  0.16880440  0.08875999     0.00200
Br1010     Br  0.49836315  0.26432991  0.99510799    -0.03600
Br1011     Br  0.52523072  0.18865650  0.97581424    -0.04500
Br1012     Br  0.57304573  0.25635215  0.13881564    -0.00500
C1013       C  0.32586165  0.23728733  0.43369045     0.00900
C1014       C  0.30225010  0.24024242  0.41136466     0.03800
C1015       C  0.28654532  0.26194851  0.41898704    -0.12300
C1016       C  0.29364277  0.28028589  0.45034832     0.23100
C1017       C  0.31759374  0.27813181  0.47114097    -0.12900
C1018       C  0.33382342  0.25689759  0.46258618     0.04500
C1019       C  0.27496167  0.30054950  0.46401375     0.26900
C1020       C  0.27427701  0.32444475  0.44292772    -0.13600
C1021       C  0.25527806  0.34278729  0.45397266     0.05000
C1022       C  0.23665594  0.33715871  0.48608438    -0.09500
C1023       C  0.23824863  0.31367529  0.50857995     0.05800
C1024       C  0.25731044  0.29546560  0.49758108    -0.13900
Br1025     Br  0.32743727  0.30391565  0.51295144    -0.06000
Br1026     Br  0.29075643  0.21441824  0.37089103    -0.00300
Br1027     Br  0.25402023  0.37465375  0.42228915     0.00100
Br1028     Br  0.25880286  0.26304080  0.52750474    -0.04300
Br1029     Br  0.36569327  0.25392989  0.49419226     0.00200
Br1030     Br  0.25488994  0.26651246  0.38716428    -0.03600
Br1031     Br  0.29874787  0.33138967  0.39741713    -0.04500
Br1032     Br  0.21430079  0.30643972  0.55473696    -0.00500
C1033       C  0.44065173  0.19026611  0.34818425     0.00900
C1034       C  0.44097611  0.18886548  0.30209835     0.03800
C1035       C  0.46439371  0.18792086  0.27915030    -0.12300
C1036       C  0.48784249  0.18798056  0.30184517     0.23100
C1037       C  0.48771427  0.19153483  0.34741455    -0.12900
C1038       C  0.46428941  0.19310496  0.37047375     0.04500
C1039       C  0.51258021  0.18394759  0.27791164     0.26900
C1040       C  0.52049601  0.15911697  0.26502069    -0.13600
C1041       C  0.54362378  0.15535313  0.24166296     0.05000
C1042       C  0.55993744  0.17622554  0.23307724    -0.09500
C1043       C  0.55243215  0.20095435  0.24849075     0.05800
C1044       C  0.52839184  0.20486195  0.26868494    -0.13900
Br1045     Br  0.51986685  0.19288800  0.37847701    -0.06000
Br1046     Br  0.40936505  0.18813220  0.26976240    -0.00300
Br1047     Br  0.55330931  0.12122131  0.22366951     0.00100
Br1048     Br  0.51641603  0.23913460  0.28245343    -0.04300
Br1049     Br  0.46532908  0.19738940  0.43293866     0.00200
Br1050     Br  0.46445581  0.18590609  0.21639677    -0.03600
Br1051     Br  0.49953868  0.13019323  0.27989468    -0.04500
Br1052     Br  0.57448399  0.23014466  0.24301453    -0.00500
C1053       C  0.35980126  0.16787696  0.79241843     0.00900
C1054       C  0.33598581  0.15825890  0.77747917     0.03800
C1055       C  0.33071201  0.15692649  0.73245905    -0.12300
C1056       C  0.34908929  0.16488525  0.70200488     0.23100
C1057       C  0.37277771  0.17429548  0.71652869    -0.12900
C1058       C  0.37828301  0.17556925  0.76136501     0.04500
C1059       C  0.34399197  0.16310077  0.65443306     0.26900
C1060       C  0.35122048  0.14084445  0.63112409    -0.13600
C1061       C  0.35042126  0.14067969  0.58522152     0.05000
C1062       C  0.34280926  0.16297616  0.56255649    -0.09500
C1063       C  0.33333758  0.18434569  0.58607599     0.05800
C1064       C  0.33402655  0.18445531  0.63192532    -0.13900
Br1065     Br  0.39783059  0.18538909  0.67442655    -0.06000
Br1066     Br  0.30991486  0.14724119  0.81783793    -0.00300
Br1067     Br  0.36158367  0.11053750  0.55363324     0.00100
Br1068     Br  0.32248819  0.21424637  0.66410109    -0.04300
Br1069     Br  0.41213072  0.18606661  0.77886028     0.00200
Br1070     Br  0.29816141  0.14443271  0.71202768    -0.03600
Br1071     Br  0.36373293  0.11120595  0.66227430    -0.04500
Br1072     Br  0.31898601  0.21328829  0.55538863    -0.00500
C1073       C  0.33527698  0.15071172  0.29102851     0.00900
C1074       C  0.32833397  0.12771903  0.27021000     0.03800
C1075       C  0.32839311  0.12607744  0.22443877    -0.12300
C1076       C  0.33597593  0.14730991  0.19942970     0.23100
C1077       C  0.34045072  0.17101393  0.22024795    -0.12900
C1078       C  0.33938977  0.17284086  0.26603155     0.04500
C1079       C  0.34145304  0.14410481  0.15205939     0.26900
C1080       C  0.36424896  0.13176537  0.13873716    -0.13600
C1081       C  0.36993863  0.12879671  0.09412332     0.05000
C1082       C  0.35412042  0.14072815  0.06195831    -0.09500
C1083       C  0.33022079  0.15163383  0.07578911     0.05800
C1084       C  0.32399198  0.15298822  0.12055948    -0.13900
Br1085     Br  0.35017761  0.20038518  0.18634337    -0.06000
Br1086     Br  0.31902830  0.09846677  0.30474384    -0.00300
Br1087     Br  0.39844334  0.10632858  0.07916398     0.00100
Br1088     Br  0.29147293  0.16722779  0.13948551    -0.04300
Br1089     Br  0.34502692  0.20523544  0.29473053     0.00200
Br1090     Br  0.31965986  0.09434317  0.19595498    -0.03600
Br1091     Br  0.38827401  0.11957717  0.18225804    -0.04500
Br1092     Br  0.30469896  0.16402870  0.03499339    -0.00500
C1093       C  0.56869017  0.14144292  0.59169958     0.00900
C1094       C  0.55498540  0.11838536  0.59726596     0.03800
C1095       C  0.53079783  0.11535237  0.57756230    -0.12300
C1096       C  0.52042192  0.13495401  0.55140643     0.23100
C1097       C  0.53458519  0.15722217  0.54357802    -0.12900
C1098       C  0.55871813  0.16044473  0.56297819     0.04500
C1099       C  0.49455297  0.13257766  0.53179906     0.26900
C1100       C  0.49210031  0.12612356  0.48751972    -0.13600
C1101       C  0.46824398  0.12878729  0.46643260     0.05000
C1102       C  0.44633247  0.13752913  0.49018174    -0.09500
C1103       C  0.44859014  0.14116464  0.53586792     0.05800
C1104       C  0.47271172  0.13938312  0.55621550    -0.13900
Br1105     Br  0.52028542  0.18392061  0.50712805    -0.06000
Br1106     Br  0.56979532  0.08995149  0.62896162    -0.00300
Br1107     Br  0.46724473  0.12206576  0.40437286     0.00100
Br1108     Br  0.47627075  0.14782217  0.61725649    -0.04300
Br1109     Br  0.57672999  0.19187311  0.55043265     0.00200
Br1110     Br  0.51153810  0.08447362  0.58654210    -0.03600
Br1111     Br  0.52218217  0.11520758  0.45531380    -0.04500
Br1112     Br  0.41892855  0.14801610  0.57180218    -0.00500
C1113       C  0.21549589  0.69964350  0.75480461     0.00900
C1114       C  0.23779465  0.69298965  0.77928222     0.03800
C1115       C  0.25460913  0.71218367  0.79413734    -0.12300
C1116       C  0.24986227  0.73812513  0.78440783     0.23100
C1117       C  0.22842576  0.74482069  0.75885451    -0.12900
C1118       C  0.21146413  0.72577899  0.74385913     0.04500
C1119       C  0.26779415  0.75825057  0.80050782     0.26900
C1120       C  0.26377298  0.77013504  0.84134550    -0.13600
C1121       C  0.28141562  0.78824285  0.85736634     0.05000
C1122       C  0.30313226  0.79483488  0.83247363    -0.09500
C1123       C  0.30688741  0.78315306  0.79123581     0.05800
C1124       C  0.28940566  0.76484821  0.77556060    -0.13900
Br1125     Br  0.22214374  0.78041886  0.74531207    -0.06000
Br1126     Br  0.24565358  0.65796920  0.79516106    -0.00300
Br1127     Br  0.27663882  0.80264405  0.91469499     0.00100
Br1128     Br  0.29514980  0.74834820  0.71999902    -0.04300
Br1129     Br  0.18336026  0.73587211  0.70666026     0.00200
Br1130     Br  0.28399584  0.70322014  0.82953064    -0.03600
Br1131     Br  0.23428247  0.76102788  0.87568639    -0.04500
Br1132     Br  0.33552645  0.79282706  0.75513420    -0.00500
C1133       C  0.44605886  0.84296321  0.91626987     0.00900
C1134       C  0.46184466  0.86409467  0.92576704     0.03800
C1135       C  0.48449828  0.86052023  0.95030153    -0.12300
C1136       C  0.49238059  0.83566726  0.96278050     0.23100
C1137       C  0.47786503  0.81442750  0.95005502    -0.12900
C1138       C  0.45450719  0.81802442  0.92805791     0.04500
C1139       C  0.51457514  0.83170006  0.99250040     0.26900
C1140       C  0.53974182  0.83026583  0.97623017    -0.13600
C1141       C  0.56051837  0.82693599  0.00510955     0.05000
C1142       C  0.55638727  0.82461205  0.05047212    -0.09500
C1143       C  0.53086697  0.82321978  0.06564262     0.05800
C1144       C  0.51014899  0.82770345  0.03714457    -0.13900
Br1145     Br  0.48997752  0.78027646  0.96392140    -0.06000
Br1146     Br  0.45221957  0.89805909  0.90686018    -0.00300
Br1147     Br  0.59476848  0.82547037  0.98238409     0.00100
Br1148     Br  0.47551784  0.82987690  0.05935554    -0.04300
Br1149     Br  0.43470372  0.78818575  0.91401826     0.00200
Br1150     Br  0.50411400  0.88969109  0.96884551    -0.03600
Br1151     Br  0.54565272  0.83371444  0.91454893    -0.04500
Br1152     Br  0.52369630  0.81558518  0.12521658    -0.00500
C1153       C  0.38134345  0.07565739  0.91817150     0.00900
C1154       C  0.36231881  0.06149645  0.94062278     0.03800
C1155       C  0.36022024  0.03472914  0.93425552    -0.12300
C1156       C  0.37789701  0.02139030  0.90762726     0.23100
C1157       C  0.39738835  0.03514685  0.88660960    -0.12900
C1158       C  0.39843005  0.06213395  0.89030666     0.04500
C1159       C  0.37458396  0.99336688  0.89842953     0.26900
C1160       C  0.38451058  0.97450883  0.92692724    -0.13600
C1161       C  0.38128053  0.94818430  0.91752342     0.05000
C1162       C  0.36867519  0.94048823  0.87903559    -0.09500
C1163       C  0.35821050  0.95934811  0.85113972     0.05800
C1164       C  0.36115190  0.98560715  0.86081679    -0.13900
Br1165     Br  0.42252850  0.01675291  0.85214965    -0.06000
Br1166     Br  0.33920523  0.07806118  0.98141913    -0.00300
Br1167     Br  0.39249667  0.92256672  0.95874233     0.00100
Br1168     Br  0.34690640  0.01119846  0.82229224    -0.04300
Br1169     Br  0.42125147  0.08045743  0.85273640     0.00200
Br1170     Br  0.33261174  0.01613525  0.96106590    -0.03600
Br1171     Br  0.40272919  0.98477270  0.97860890    -0.04500
Br1172     Br  0.34035002  0.94932648  0.79884187    -0.00500
C1173       C  0.41936962  0.80549831  0.76715873     0.00900
C1174       C  0.43202172  0.78316309  0.78249632     0.03800
C1175       C  0.45768385  0.77811639  0.77036475    -0.12300
C1176       C  0.46993420  0.79423584  0.74036431     0.23100
C1177       C  0.45534328  0.81291528  0.71805728    -0.12900
C1178       C  0.42980170  0.81792806  0.73036933     0.04500
C1179       C  0.49814871  0.79282504  0.73331224     0.26900
C1180       C  0.51456972  0.80614291  0.76176777    -0.13600
C1181       C  0.54011754  0.81070641  0.74950602     0.05000
C1182       C  0.54906207  0.80285788  0.70820259    -0.09500
C1183       C  0.53356272  0.78683721  0.68217084     0.05800
C1184       C  0.50820068  0.78164416  0.69503613    -0.13900
Br1185     Br  0.47094847  0.83309812  0.67291550    -0.06000
Br1186     Br  0.41378664  0.75850008  0.81688719    -0.00300
Br1187     Br  0.56291054  0.82830621  0.78858072     0.00100
Br1188     Br  0.48628800  0.76119968  0.65849349    -0.04300
Br1189     Br  0.40925539  0.84124468  0.69574668     0.00200
Br1190     Br  0.47652820  0.75015545  0.79638135    -0.03600
Br1191     Br  0.50138635  0.82015528  0.81568661    -0.04500
Br1192     Br  0.54568165  0.77417845  0.62668016    -0.00500
C1193       C  0.19939837  0.70469070  0.25881833     0.00900
C1194       C  0.22483365  0.69761314  0.24693410     0.03800
C1195       C  0.24569064  0.71283547  0.25993878    -0.12300
C1196       C  0.24159011  0.73426115  0.28712516     0.23100
C1197       C  0.21643327  0.74095060  0.30001342    -0.12900
C1198       C  0.19537858  0.72714686  0.28418764     0.04500
C1199       C  0.26287014  0.75187338  0.29840476     0.26900
C1200       C  0.28075113  0.74590702  0.33143747    -0.13600
C1201       C  0.29794486  0.76475837  0.34641283     0.05000
C1202       C  0.29589042  0.79021127  0.33090772    -0.09500
C1203       C  0.27714512  0.79604439  0.29873445     0.05800
C1204       C  0.26266360  0.77643620  0.27991704    -0.13900
Br1205     Br  0.21082285  0.76952113  0.33945202    -0.06000
Br1206     Br  0.23153961  0.66810439  0.21025596    -0.00300
Br1207     Br  0.32208051  0.75625528  0.39190341     0.00100
Br1208     Br  0.24151788  0.78331134  0.22937205    -0.04300
Br1209     Br  0.16137339  0.73991959  0.29791022     0.00200
Br1210     Br  0.27980442  0.70510955  0.23890597    -0.03600
Br1211     Br  0.28084024  0.71232737  0.35747349    -0.04500
Br1212     Br  0.26864129  0.83072398  0.28186578    -0.00500
C1213       C  0.42079506  0.86389871  0.45102616     0.00900
C1214       C  0.43893269  0.88390016  0.44518891     0.03800
C1215       C  0.46224281  0.88402210  0.46893858    -0.12300
C1216       C  0.46812672  0.86437370  0.49869552     0.23100
C1217       C  0.44984350  0.84534252  0.50662295    -0.12900
C1218       C  0.42614814  0.84535570  0.48411742     0.04500
C1219       C  0.49340778  0.86373624  0.52225368     0.26900
C1220       C  0.51528071  0.85253300  0.50255957    -0.13600
C1221       C  0.53861308  0.85022334  0.52548010     0.05000
C1222       C  0.54034441  0.85886573  0.56889640    -0.09500
C1223       C  0.51868163  0.87093053  0.58836544     0.05800
C1224       C  0.49540987  0.87340511  0.56504189    -0.13900
Br1225     Br  0.45789897  0.81864331  0.54814477    -0.06000
Br1226     Br  0.43224563  0.91237547  0.40653015    -0.00300
Br1227     Br  0.56853130  0.83605053  0.49659608     0.00100
Br1228     Br  0.46591816  0.88964520  0.59178969    -0.04300
Br1229     Br  0.40180402  0.81942376  0.50062208     0.00200
Br1230     Br  0.48654283  0.91126924  0.46106422    -0.03600
Br1231     Br  0.51327467  0.83982199  0.44424465    -0.04500
Br1232     Br  0.52006351  0.88289487  0.64787893    -0.00500
C1233       C  0.33214760  0.94205441  0.39055000     0.00900
C1234       C  0.34704880  0.95180886  0.42515077     0.03800
C1235       C  0.34765378  0.97829441  0.43291624    -0.12300
C1236       C  0.33203856  0.99488585  0.40823646     0.23100
C1237       C  0.31462145  0.98492791  0.37777497    -0.12900
C1238       C  0.31460548  0.95849570  0.36875927     0.04500
C1239       C  0.33623031  0.02277924  0.41047951     0.26900
C1240       C  0.32315686  0.03811613  0.44120893    -0.13600
C1241       C  0.32807499  0.06456116  0.44368883     0.05000
C1242       C  0.34664150  0.07549858  0.41608561    -0.09500
C1243       C  0.35926267  0.05995304  0.38456280     0.05800
C1244       C  0.35386778  0.03376100  0.38166686    -0.13900
Br1245     Br  0.29224060  0.00799681  0.34618278    -0.06000
Br1246     Br  0.36574827  0.92892950  0.46340082    -0.00300
Br1247     Br  0.30979156  0.08534106  0.48571009     0.00100
Br1248     Br  0.37052001  0.01267123  0.33779039    -0.04300
Br1249     Br  0.29130477  0.94575863  0.32504742     0.00200
Br1250     Br  0.37130024  0.99211985  0.47499154    -0.03600
Br1251     Br  0.29872058  0.02258559  0.47986225    -0.04500
Br1252     Br  0.38307590  0.07412572  0.34309817    -0.00500
C1253       C  0.31655665  0.85444230  0.49756664     0.00900
C1254       C  0.32506790  0.83518562  0.52717046     0.03800
C1255       C  0.32905620  0.84121129  0.57134434    -0.12300
C1256       C  0.32248228  0.86561588  0.58751934     0.23100
C1257       C  0.31160838  0.88404198  0.55963404    -0.12900
C1258       C  0.30840057  0.87859699  0.51495248     0.04500
C1259       C  0.32614094  0.87141859  0.63449333     0.26900
C1260       C  0.30833403  0.86260209  0.66513969    -0.13600
C1261       C  0.31300550  0.86551544  0.71010404     0.05000
C1262       C  0.33558282  0.87812592  0.72487873    -0.09500
C1263       C  0.35176481  0.88959173  0.69313843     0.05800
C1264       C  0.34764932  0.88513007  0.64842539    -0.13900
Br1265     Br  0.30199044  0.91724575  0.58297345    -0.06000
Br1266     Br  0.32984561  0.79977590  0.50962539    -0.00300
Br1267     Br  0.28776052  0.85152757  0.74945234     0.00100
Br1268     Br  0.37220873  0.89670409  0.60578898    -0.04300
Br1269     Br  0.29204107  0.90475530  0.47964205     0.00200
Br1270     Br  0.34474760  0.81635238  0.60991349    -0.03600
Br1271     Br  0.27780848  0.84557922  0.64472625    -0.04500
Br1272     Br  0.37911875  0.91263918  0.70882333    -0.00500
C1273       C  0.32834973  0.87316297  0.22636001     0.00900
C1274       C  0.32948005  0.89502242  0.19939910     0.03800
C1275       C  0.33000107  0.89229990  0.15354510    -0.12300
C1276       C  0.32876792  0.86778270  0.13422167     0.23100
C1277       C  0.32639469  0.84608564  0.16093662    -0.12900
C1278       C  0.32688394  0.84862929  0.20664028     0.04500
C1279       C  0.33231328  0.86429959  0.08623382     0.26900
C1280       C  0.31129267  0.86557457  0.05749894    -0.13600
C1281       C  0.31480555  0.86089449  0.01247483     0.05000
C1282       C  0.33929108  0.85401811  0.99593788    -0.09500
C1283       C  0.36028407  0.85279962  0.02509876     0.05800
C1284       C  0.35685020  0.85840792  0.06966189    -0.13900
Br1285     Br  0.32345767  0.81260334  0.13447555    -0.06000
Br1286     Br  0.33019136  0.92875765  0.22508546    -0.00300
Br1287     Br  0.28578263  0.86349138  0.97381119     0.00100
Br1288     Br  0.38607622  0.85890669  0.10814716    -0.04300
Br1289     Br  0.32918722  0.81791088  0.24121913     0.00200
Br1290     Br  0.33318624  0.92202244  0.11692007    -0.03600
Br1291     Br  0.27772423  0.87382064  0.08017991    -0.04500
Br1292     Br  0.39432969  0.84480829  0.00483758    -0.03700
C1293       C  0.54173889  0.85123345  0.21040555     0.00900
C1294       C  0.53619584  0.82638547  0.22726126     0.03800
C1295       C  0.51121801  0.82048544  0.24009892    -0.12300
C1296       C  0.49252968  0.83989151  0.24279471     0.23100
C1297       C  0.49856006  0.86522800  0.23109646    -0.12900
C1298       C  0.52283177  0.87074565  0.21344276     0.04500
C1299       C  0.46701847  0.83356274  0.26047025     0.26900
C1300       C  0.44562584  0.83237531  0.23287725    -0.13600
C1301       C  0.42126655  0.82825104  0.25070949     0.05000
C1302       C  0.41834325  0.82416073  0.29590295    -0.09500
C1303       C  0.44042095  0.82136680  0.32209700     0.05800
C1304       C  0.46448038  0.82740485  0.30480811    -0.13900
Br1305     Br  0.47357459  0.89229988  0.23996109    -0.06000
Br1306     Br  0.56126583  0.79883035  0.23180019    -0.00300
Br1307     Br  0.39184952  0.82950743  0.21335401     0.00100
Br1308     Br  0.49393246  0.82888375  0.34220560    -0.04300
Br1309     Br  0.53045787  0.90533349  0.19617155     0.00200
Br1310     Br  0.50208082  0.78530922  0.25263991    -0.03600
Br1311     Br  0.44966909  0.83741387  0.17107920    -0.04500
Br1312     Br  0.43812730  0.81104690  0.38228320    -0.00500
loop_ 
_geom_bond_atom_site_label_1 
_geom_bond_atom_site_label_2 
_geom_bond_distance 
_geom_bond_site_symmetry_2 
_ccdc_geom_bond_type 
O1           C16   1.268       .  A
O1           Al9   1.926       .  S
C2           O12   1.270       .  A
C2            O3   1.265       .  A
C2         C1273   1.493       .  S
O3           Al5   1.905       .  S
O4            C6   1.257       .  A
O4           Al5   1.909       .  S
Al5          O13   1.907       .  S
Al5          O15   1.891       .  S
Al5          O14   1.779       .  S
C6           O19   1.265       .  A
C6         C1202   1.491       .  S
O7           C17   1.265       .  A
O7           Al9   1.929       .  S
O8           C21   1.266       .  A
O8          Al18   1.944       .  S
Al9          O22   1.913       .  S
Al9          O19   1.927       .  S
Al9          O14   1.773       .  S
O10          C17   1.253       .  A
O10         Al18   1.862       .  S
O11          C20   1.258       .  A
O11         Al18   1.885       .  S
O12         Al18   1.941       .  S
O13          C20   1.258       .  A
O14         Al18   1.772       .  S
O15          C16   1.262       .  A
C16        C1253   1.503       .  S
C17        C1302   1.474       .  S
C20        C1233   1.479       .  S
C21          O22   1.261       .  A
C21        C1213   1.523       .  S
O23          C38   1.272       .  A
O23         Al31   1.953       .  S
C24          O34   1.264       .  A
C24          O25   1.259       .  A
C24        C1262   1.505       .  S
O25         Al27   1.891       .  S
O26          C28   1.264       .  A
O26         Al27   1.939       .  S
Al27         O35   1.934       .  S
Al27         O37   1.894       .  S
Al27         O36   1.789       .  S
C28          O41   1.256       .  A
C28        C1122   1.491       .  S
O29          C39   1.265       .  A
O29         Al31   1.934       .  S
O30          C43   1.263       .  A
O30         Al40   1.931       .  S
Al31         O44   1.880       .  S
Al31         O41   1.893       .  S
Al31         O36   1.779       .  S
O32          C39   1.258       .  A
O32         Al40   1.885       .  S
O33          C42   1.261       .  A
O33         Al40   1.907       .  S
O34         Al40   1.923       .  S
O35          C42   1.265       .  A
O36         Al40   1.781       .  S
O37          C38   1.262       .  A
C38        C1282   1.494       .  S
C39        C1173   1.499       .  S
C42        C1162   1.488       .  S
C43          O44   1.257       .  A
C43        C1133   1.488       .  S
O45          C60   1.260       .  A
O45         Al53   1.897       .  S
C46          O56   1.266       .  A
C46          O47   1.267       .  A
C46        C1073   1.475       .  S
O47         Al49   1.922       .  S
O48          C50   1.256       .  A
O48         Al49   1.880       .  S
Al49         O57   1.882       .  S
Al49         O59   1.904       .  S
Al49         O58   1.772       .  S
C50          O63   1.266       .  A
C50        C1033   1.497       .  S
O51          C61   1.263       .  A
O51         Al53   1.917       .  S
O52          C65   1.267       .  A
O52         Al62   1.907       .  S
Al53         O66   1.934       .  S
Al53         O63   1.941       .  S
Al53         O58   1.781       .  S
O54          C61   1.261       .  A
O54         Al62   1.919       .  S
O55          C64   1.261       .  A
O55         Al62   1.932       .  S
O56         Al62   1.909       .  S
O57          C64   1.253       .  A
O58         Al62   1.791       .  S
O59          C60   1.259       .  A
C60        C1102   1.496       .  S
C61        C1013   1.490       .  S
C64        C1242   1.478       .  S
C65          O66   1.270       .  A
C65        C1062   1.480       .  S
O67          C82   1.272       .  A
O67         Al75   1.943       .  S
C68          O78   1.268       .  A
C68          O69   1.264   1_554  A
C68        C1082   1.511       .  S
O69         Al71   1.901       .  S
O70          C72   1.264       .  A
O70         Al71   1.945       .  S
Al71         O79   1.930       .  S
Al71         O81   1.893       .  S
Al71         O80   1.783       .  S
C72          O85   1.257       .  A
C72         C953   1.503       .  S
O73          C83   1.265       .  A
O73         Al75   1.928       .  S
O74          C87   1.269       .  A
O74         Al84   1.959       .  S
Al75         O88   1.891       .  S
Al75         O85   1.905       .  S
Al75         O80   1.780       .  S
O76          C83   1.256   1_554  A
O76         Al84   1.881   1_554  S
O77          C86   1.266       .  A
O77         Al84   1.925       .  S
O78         Al84   1.935   1_554  S
O79          C86   1.263       .  A
O80         Al84   1.785       .  S
O81          C82   1.264       .  A
C82        C1053   1.492       .  S
C83         C993   1.497   1_556  S
C86        C1153   1.507       .  S
C87          O88   1.258       .  A
C87         C973   1.506       .  S
O89         C104   1.245       .  A
O89         Al97   1.855       .  S
C90         O100   1.268       .  A
C90          O91   1.275       .  A
C90         C922   1.490       .  S
O91         Al93   1.947       .  S
O92          C94   1.253       .  A
O92         Al93   1.867       .  S
Al93        O101   1.897       .  S
Al93        O103   1.971       .  S
Al93        O102   1.766       .  S
C94         O107   1.274       .  A
C94        C1142   1.493       .  S
O95         C105   1.261       .  A
O95         Al97   1.903       .  S
O96         C109   1.266       .  A
O96        Al106   1.906       .  S
Al97        O110   1.947       .  S
Al97        O107   1.985       .  S
Al97        O102   1.757       .  S
O98         C105   1.273       .  A
O98        Al106   1.967       .  S
O99         C108   1.270       .  A
O99        Al106   1.958       .  S
O100       Al106   1.903       .  S
O101        C108   1.259       .  A
O102       Al106   1.773       .  S
O103        C104   1.272       .  A
C104       C1293   1.489       .  S
C105        C873   1.506       .  S
C108        C893   1.495       .  S
C109        O110   1.271       .  A
C109        C933   1.478       .  S
O111        C126   1.257       .  A
O111       Al119   1.878       .  S
C112        O122   1.259       .  A
C112        O113   1.270       .  A
C112        C913   1.506       .  S
O113       Al115   1.959       .  S
O114        C116   1.256       .  A
O114       Al115   1.883       .  S
Al115       O123   1.892       .  S
Al115       O125   1.956       .  S
Al115       O124   1.786       .  S
C116        O129   1.270       .  A
C116        C842   1.490       .  S
O117        C127   1.261       .  A
O117       Al119   1.909       .  S
O118        C131   1.263       .  A
O118       Al128   1.898       .  S
Al119       O132   1.949       .  S
Al119       O129   1.955       .  S
Al119       O124   1.781       .  S
O120        C127   1.263       .  A
O120       Al128   1.917       .  S
O121        C130   1.264       .  A
O121       Al128   1.934       .  S
O122       Al128   1.885       .  S
O123        C130   1.256       .  A
O124       Al128   1.777       .  S
O125        C126   1.269       .  A
C126        C942   1.498       .  S
C127       C1182   1.482       .  S
C130        C853   1.480       .  S
C131        O132   1.271       .  A
C131       C1222   1.490       .  S
O133        C148   1.263       .  A
O133       Al141   1.930       .  S
C134        O144   1.271       .  A
C134        O135   1.263       .  A
C134        C802   1.516       .  S
O135       Al137   1.903       .  S
O136        C138   1.264       .  A
O136       Al137   1.932       .  S
Al137       O145   1.918       .  S
Al137       O147   1.903       .  S
Al137       O146   1.778       .  S
C138        O151   1.257       .  A
C138        C773   1.473       .  S
O139        C149   1.261       .  A
O139       Al141   1.917       .  S
O140        C153   1.272       .  A
O140       Al150   1.958       .  S
Al141       O154   1.899       .  S
Al141       O151   1.890       .  S
Al141       O146   1.780       .  S
O142        C149   1.261       .  A
O142       Al150   1.898       .  S
O143        C152   1.264       .  A
O143       Al150   1.919       .  S
O144       Al150   1.952       .  S
O145        C152   1.261       .  A
O146       Al150   1.775       .  S
O147        C148   1.263       .  A
C148        C822   1.506       .  S
C149       C1002   1.494       .  S
C152        C902   1.492       .  S
C153        O154   1.260       .  A
C153       C1042   1.503       .  S
O155        C170   1.253       .  A
O155       Al163   1.878       .  S
C156        O166   1.268       .  A
C156        O157   1.268       .  A
C156        C793   1.487       .  S
O157       Al159   1.930       .  S
O158        C160   1.255       .  A
O158       Al159   1.871       .  S
Al159       O167   1.869       .  S
Al159       O169   1.941       .  S
Al159       O168   1.770       .  S
C160        O173   1.274       .  A
C160        C982   1.497       .  S
O161        C171   1.270       .  A
O161       Al163   1.925       .  S
O162        C175   1.264       .  A
O162       Al172   1.906       .  S
Al163       O176   1.926       .  S
Al163       O173   1.982       .  S
Al163       O168   1.770       .  S
O164        C171   1.272       .  A
O164       Al172   1.957       .  S
O165        C174   1.271       .  A
O165       Al172   1.968       .  S
O166       Al172   1.921       .  S
O167        C174   1.253       .  A
O168       Al172   1.778       .  S
O169        C170   1.266       .  A
C170       C1093   1.491       .  S
C171        C753   1.512       .  S
C174        C862   1.486       .  S
C175        O176   1.267       .  A
C175        C813   1.472       .  S
O177        C192   1.266       .  A
O177       Al185   1.933       .  S
C178        O188   1.261       .  A
C178        O179   1.265       .  A
C178        C713   1.475       .  S
O179       Al181   1.918       .  S
O180        C182   1.261       .  A
O180       Al181   1.909       .  S
Al181       O189   1.907       .  S
Al181       O191   1.920       .  S
Al181       O190   1.787       .  S
C182        O195   1.262       .  A
C182        C882   1.493       .  S
O183        C193   1.256       .  A
O183       Al185   1.911       .  S
O184        C197   1.260       .  A
O184       Al194   1.910       .  S
Al185       O198   1.902       .  S
Al185       O195   1.917       .  S
Al185       O190   1.786       .  S
O186        C193   1.262       .  A
O186       Al194   1.891       .  S
O187        C196   1.257       .  A
O187       Al194   1.895       .  S
O188       Al194   1.905       .  S
O189        C196   1.258       .  A
O190       Al194   1.784       .  S
O191        C192   1.266       .  A
C192        C693   1.502       .  S
C193        C733   1.498       .  S
C196        C673   1.480       .  S
C197        O198   1.261       .  A
C197        C653   1.485       .  S
O199        C214   1.250       .  A
O199       Al207   1.873       .  S
C200        O210   1.268       .  A
C200        O201   1.272       .  A
C200        C722   1.504       .  S
O201       Al203   1.950       .  S
O202        C204   1.251       .  A
O202       Al203   1.859       .  S
Al203       O211   1.900       .  S
Al203       O213   1.964       .  S
Al203       O212   1.774       .  S
C204        O217   1.274       .  A
C204        C602   1.489       .  S
O205        C215   1.261       .  A
O205       Al207   1.922       .  S
O206        C219   1.268       .  A
O206       Al216   1.896       .  S
Al207       O220   1.946       .  S
Al207       O217   1.980       .  S
Al207       O212   1.765       .  S
O208        C215   1.264       .  A
O208       Al216   1.941       .  S
O209        C218   1.267       .  A
O209       Al216   1.947       .  S
O210       Al216   1.904       .  S
O211        C218   1.261       .  A
O212       Al216   1.775       .  S
O213        C214   1.271       .  A
C214        C633   1.503       .  S
C215        C833   1.518       .  S
C218        C613   1.500       .  S
C219        O220   1.276       .  A
C219        C702   1.495       .  S
O221        C236   1.268       .  A
O221       Al229   1.926       .  S
C222        O232   1.266       .  A
C222        O223   1.262       .  A
C222        C542   1.481       .  S
O223       Al225   1.903       .  S
O224        C226   1.266       .  A
O224       Al225   1.939       .  S
Al225       O233   1.953       .  S
Al225       O235   1.912       .  S
Al225       O234   1.785       .  S
C226        O239   1.260       .  A
C226       C1193   1.492       .  S
O227        C237   1.261       .  A
O227       Al229   1.922       .  S
O228        C241   1.263       .  A
O228       Al238   1.921       .  S
Al229       O242   1.899       .  S
Al229       O239   1.894       .  S
Al229       O234   1.777       .  S
O230        C237   1.254       .  A
O230       Al238   1.873       .  S
O231        C240   1.253       .  A
O231       Al238   1.873       .  S
O232       Al238   1.932       .  S
O233        C240   1.267       .  A
O234       Al238   1.766       .  S
O235        C236   1.267       .  A
C236        C522   1.487       .  S
C237        C562   1.479       .  S
C240        C682   1.486       .  S
C241        O242   1.263       .  A
C241        C582   1.501       .  S
O243        C258   1.251       .  A
O243       Al251   1.866       .  S
C244        O254   1.272       .  A
C244        O245   1.264       .  A
C244        C533   1.511       .  S
O245       Al247   1.919       .  S
O246        C248   1.262       .  A
O246       Al247   1.898       .  S
Al247       O255   1.920       .  S
Al247       O257   1.939       .  S
Al247       O256   1.780       .  S
C248        O261   1.269       .  A
C248        C493   1.511       .  S
O249        C259   1.259       .  A
O249       Al251   1.908       .  S
O250        C263   1.266       .  A
O250       Al260   1.908       .  S
Al251       O264   1.948       .  S
Al251       O261   1.953       .  S
Al251       O256   1.769       .  S
O252        C259   1.265       .  A
O252       Al260   1.941       .  S
O253        C262   1.264       .  A
O253       Al260   1.922       .  S
O254       Al260   1.931       .  S
O255        C262   1.266       .  A
O256       Al260   1.779       .  S
O257        C258   1.264       .  A
C258        C473   1.488       .  S
C259       C1113   1.506       .  S
C262        C622   1.497       .  S
C263        O264   1.271       .  A
C263        C513   1.492       .  S
O265        C280   1.267       .  A
O265       Al273   1.935       .  S
C266        O276   1.268       .  A
C266        O267   1.261       .  A
C266        C433   1.505       .  S
O267       Al269   1.899       .  S
O268        C270   1.269       .  A
O268       Al269   1.944       .  S
Al269       O277   1.946       .  S
Al269       O279   1.901       .  S
Al269       O278   1.787       .  S
C270        O283   1.264       .  A
C270        C762   1.511       .  S
O271        C281   1.262       .  A
O271       Al273   1.934       .  S
O272        C285   1.263       .  A
O272       Al282   1.919       .  S
Al273       O286   1.908       .  S
Al273       O283   1.916       .  S
Al273       O278   1.793       .  S
O274        C281   1.254       .  A
O274       Al282   1.869       .  S
O275        C284   1.253       .  A
O275       Al282   1.884       .  S
O276       Al282   1.930       .  S
O277        C284   1.264       .  A
O278       Al282   1.767       .  S
O279        C280   1.261       .  A
C280        C453   1.484       .  S
C281        C642   1.484       .  S
C284        C413   1.495       .  S
C285        O286   1.264       .  A
C285        C662   1.509       .  S
O287        C302   1.274       .  A
O287       Al295   1.955       .  S
C288        O298   1.273       .  A
C288        O289   1.262       .  A
C288        C462   1.475       .  S
O289       Al291   1.886       .  S
O290        C292   1.261       .  A
O290       Al291   1.936       .  S
Al291       O299   1.920       .  S
Al291       O301   1.900   1_554  S
Al291       O300   1.780       .  S
C292        O305   1.255       .  A
C292        C782   1.488       .  S
O293        C303   1.260       .  A
O293       Al295   1.924   1_554  S
O294        C307   1.270   1_554  A
O294       Al304   1.954       .  S
Al295       O308   1.878       .  S
Al295       O305   1.889   1_556  S
Al295       O300   1.766   1_556  S
O296        C303   1.257       .  A
O296       Al304   1.873       .  S
O297        C306   1.262       .  A
O297       Al304   1.922       .  S
O298       Al304   1.951       .  S
O299        C306   1.261       .  A
O300       Al304   1.774       .  S
O301        C302   1.267       .  A
C302        C442   1.495       .  S
C303        C742   1.496       .  S
C306        C402   1.506       .  S
C307        O308   1.256       .  A
C307        C593   1.496       .  S
O309        C324   1.264       .  A
O309       Al317   1.895       .  S
C310        O320   1.261       .  A
C310        O311   1.264       .  A
C310        C353   1.507       .  S
O311       Al313   1.917       .  S
O312        C314   1.261       .  A
O312       Al313   1.909       .  S
Al313       O321   1.958       .  S
Al313       O323   1.928   1_556  S
Al313       O322   1.780       .  S
C314        O327   1.267       .  A
C314        C962   1.505       .  S
O315        C325   1.265       .  A
O315       Al317   1.935   1_556  S
O316        C329   1.260       .  A
O316       Al326   1.912   1_554  S
Al317       O330   1.919       .  S
Al317       O327   1.936   1_554  S
Al317       O322   1.779   1_554  S
O318        C325   1.254       .  A
O318       Al326   1.865       .  S
O319        C328   1.256       .  A
O319       Al326   1.887   1_554  S
O320       Al326   1.917       .  S
O321        C328   1.268   1_556  A
O322       Al326   1.774       .  S
O323        C324   1.271       .  A
C324        C373   1.502       .  S
C325        C482   1.468       .  S
C328        C393   1.483       .  S
C329        O330   1.261       .  A
C329        C573   1.501       .  S
O331        C346   1.250       .  A
O331       Al339   1.867       .  S
C332        O342   1.269       .  A
C332        O333   1.268       .  A
C332        C362   1.480       .  S
O333       Al335   1.925       .  S
O334        C336   1.264       .  A
O334       Al335   1.890       .  S
Al335       O343   1.935       .  S
Al335       O345   1.937       .  S
Al335       O344   1.787       .  S
C336        O349   1.264       .  A
C336        C502   1.512       .  S
O337        C347   1.255       .  A
O337       Al339   1.903       .  S
O338        C351   1.266       .  A
O338       Al348   1.897       .  S
Al339       O352   1.942       .  S
Al339       O349   1.946       .  S
Al339       O344   1.774       .  S
O340        C347   1.256       .  A
O340       Al348   1.909       .  S
O341        C350   1.257       .  A
O341       Al348   1.904       .  S
O342       Al348   1.910       .  S
O343        C350   1.268       .  A
O344       Al348   1.782       .  S
O345        C346   1.264       .  A
C346        C553   1.488       .  S
C347       C1022   1.484       .  S
C350        C422   1.506       .  S
C351        O352   1.272       .  A
C351        C382   1.480       .  S
C353        C354   1.431       .  A
C353        C358   1.425       .  A
C354        C355   1.407       .  A
C354       Br366   1.939       .  S
C355        C356   1.404       .  A
C355       Br370   1.940       .  S
C356        C359   1.488       .  S
C356        C357   1.405       .  A
C357        C358   1.413       .  A
C357       Br365   1.931       .  S
C358       Br369   1.934       .  S
C359        C360   1.408       .  A
C359        C364   1.410       .  A
C360        C361   1.406       .  A
C360       Br371   1.931       .  S
C361        C362   1.412       .  A
C361       Br367   1.926       .  S
C362        C363   1.412       .  A
C363        C364   1.410       .  A
C363       Br372   1.931       .  S
C364       Br368   1.929       .  S
C373        C374   1.419       .  A
C373        C378   1.426       .  A
C374        C375   1.414       .  A
C374       Br386   1.929       .  S
C375        C376   1.408       .  A
C375       Br390   1.928       .  S
C376        C379   1.488       .  S
C376        C377   1.404       .  A
C377        C378   1.406       .  A
C377       Br385   1.934       .  S
C378       Br389   1.939       .  S
C379        C380   1.410       .  A
C379        C384   1.409       .  A
C380        C381   1.408       .  A
C380       Br391   1.933       .  S
C381        C382   1.411       .  A
C381       Br387   1.928       .  S
C382        C383   1.411       .  A
C383        C384   1.410       .  A
C383       Br392   1.930       .  S
C384       Br388   1.928       .  S
C393        C394   1.412   1_554  A
C393        C398   1.410       .  A
C394        C395   1.408       .  A
C394       Br406   1.927       .  S
C395        C396   1.411   1_556  A
C395       Br410   1.933       .  S
C396        C399   1.498   1_455  S
C396        C397   1.414       .  A
C397        C398   1.413       .  A
C397       Br405   1.929       .  S
C398       Br409   1.927       .  S
C399        C400   1.411       .  A
C399        C404   1.408   1_554  A
C400        C401   1.415       .  A
C400       Br411   1.933       .  S
C401        C402   1.424       .  A
C401       Br407   1.932       .  S
C402        C403   1.422   1_554  A
C403        C404   1.409       .  A
C403       Br412   1.935       .  S
C404       Br408   1.934       .  S
C413        C414   1.420       .  A
C413        C418   1.417       .  A
C414        C415   1.408       .  A
C414       Br426   1.931       .  S
C415        C416   1.406       .  A
C415       Br430   1.934   1_655  S
C416        C419   1.494   1_655  S
C416        C417   1.411       .  A
C417        C418   1.415       .  A
C417       Br425   1.929       .  S
C418       Br429   1.930       .  S
C419        C420   1.410       .  A
C419        C424   1.405       .  A
C420        C421   1.414       .  A
C420       Br431   1.930       .  S
C421        C422   1.416       .  A
C421       Br427   1.927       .  S
C422        C423   1.428       .  A
C423        C424   1.410       .  A
C423       Br432   1.937       .  S
C424       Br428   1.934       .  S
C433        C434   1.425       .  A
C433        C438   1.420       .  A
C434        C435   1.412       .  A
C434       Br446   1.928       .  S
C435        C436   1.405       .  A
C435       Br450   1.933       .  S
C436        C439   1.491       .  S
C436        C437   1.406       .  A
C437        C438   1.410       .  A
C437       Br445   1.932       .  S
C438       Br449   1.929       .  S
C439        C440   1.406       .  A
C439        C444   1.408       .  A
C440        C441   1.408       .  A
C440       Br451   1.929       .  S
C441        C442   1.419       .  A
C441       Br447   1.927       .  S
C442        C443   1.418       .  A
C443        C444   1.412       .  A
C443       Br452   1.931       .  S
C444       Br448   1.929       .  S
C453        C454   1.409       .  A
C453        C458   1.414       .  A
C454        C455   1.410       .  A
C454       Br466   1.924       .  S
C455        C456   1.412       .  A
C455       Br470   1.931       .  S
C456        C459   1.493       .  S
C456        C457   1.410       .  A
C457        C458   1.410       .  A
C457       Br465   1.933       .  S
C458       Br469   1.932       .  S
C459        C460   1.415       .  A
C459        C464   1.412       .  A
C460        C461   1.413       .  A
C460       Br471   1.927       .  S
C461        C462   1.407       .  A
C461       Br467   1.928       .  S
C462        C463   1.408       .  A
C463        C464   1.404       .  A
C463       Br472   1.927       .  S
C464       Br468   1.932       .  S
C473        C474   1.426       .  A
C473        C478   1.415       .  A
C474        C475   1.401       .  A
C474       Br486   1.933       .  S
C475        C476   1.400       .  A
C475       Br490   1.937       .  S
C476        C479   1.477       .  S
C476        C477   1.408       .  A
C477        C478   1.410       .  A
C477       Br485   1.930       .  S
C478       Br489   1.929       .  S
C479        C480   1.408       .  A
C479        C484   1.408       .  A
C480        C481   1.406       .  A
C480       Br491   1.926       .  S
C481        C482   1.410       .  A
C481       Br487   1.928       .  S
C482        C483   1.409       .  A
C483        C484   1.400       .  A
C483       Br492   1.923   1_556  S
C484       Br488   1.936       .  S
C493        C494   1.419       .  A
C493        C498   1.415       .  A
C494        C495   1.416       .  A
C494       Br506   1.923       .  S
C495        C496   1.409       .  A
C495       Br510   1.928       .  S
C496        C499   1.496       .  S
C496        C497   1.407       .  A
C497        C498   1.410       .  A
C497       Br505   1.929       .  S
C498       Br509   1.925       .  S
C499        C500   1.408       .  A
C499        C504   1.408       .  A
C500        C501   1.415       .  A
C500       Br511   1.928       .  S
C501        C502   1.422       .  A
C501       Br507   1.928       .  S
C502        C503   1.421       .  A
C503        C504   1.412       .  A
C503       Br512   1.935       .  S
C504       Br508   1.931       .  S
C513        C514   1.416       .  A
C513        C518   1.415       .  A
C514        C515   1.415       .  A
C514       Br526   1.929       .  S
C515        C516   1.410       .  A
C515       Br530   1.927       .  S
C516        C519   1.492   1_556  S
C516        C517   1.407       .  A
C517        C518   1.406       .  A
C517       Br525   1.932       .  S
C518       Br529   1.922       .  S
C519        C520   1.409       .  A
C519        C524   1.410       .  A
C520        C521   1.410       .  A
C520       Br531   1.929       .  S
C521        C522   1.415       .  A
C521       Br527   1.932       .  S
C522        C523   1.413       .  A
C523        C524   1.411       .  A
C523       Br532   1.929       .  S
C524       Br528   1.929       .  S
C533        C534   1.425       .  A
C533        C538   1.432       .  A
C534        C535   1.415       .  A
C534       Br546   1.931       .  S
C535        C536   1.405       .  A
C535       Br550   1.929       .  S
C536        C539   1.490       .  S
C536        C537   1.404       .  A
C537        C538   1.408       .  A
C537       Br545   1.939       .  S
C538       Br549   1.939       .  S
C539        C540   1.410       .  A
C539        C544   1.408       .  A
C540        C541   1.410       .  A
C540       Br551   1.927       .  S
C541        C542   1.410       .  A
C541       Br547   1.928       .  S
C542        C543   1.412       .  A
C543        C544   1.408       .  A
C543       Br552   1.929       .  S
C544       Br548   1.930       .  S
C553        C554   1.413       .  A
C553        C558   1.425       .  A
C554        C555   1.411       .  A
C554       Br566   1.925       .  S
C555        C556   1.409       .  A
C555       Br570   1.930       .  S
C556        C559   1.476       .  S
C556        C557   1.398       .  A
C557        C558   1.400       .  A
C557       Br565   1.938       .  S
C558       Br569   1.927       .  S
C559        C560   1.409       .  A
C559        C564   1.404       .  A
C560        C561   1.405       .  A
C560       Br571   1.933       .  S
C561        C562   1.416       .  A
C561       Br567   1.933       .  S
C562        C563   1.412       .  A
C563        C564   1.401       .  A
C563       Br572   1.921       .  S
C564       Br568   1.928       .  S
C573        C574   1.422       .  A
C573        C578   1.422       .  A
C574        C575   1.412       .  A
C574       Br586   1.933       .  S
C575        C576   1.409       .  A
C575       Br590   1.932       .  S
C576        C579   1.491       .  S
C576        C577   1.405       .  A
C577        C578   1.410       .  A
C577       Br585   1.932       .  S
C578       Br589   1.933       .  S
C579        C580   1.406       .  A
C579        C584   1.408       .  A
C580        C581   1.410       .  A
C580       Br591   1.933       .  S
C581        C582   1.426       .  A
C581       Br587   1.935       .  S
C582        C583   1.420       .  A
C583        C584   1.411       .  A
C583       Br592   1.932       .  S
C584       Br588   1.931       .  S
C593        C594   1.424       .  A
C593        C598   1.412       .  A
C594        C595   1.408       .  A
C594       Br606   1.929       .  S
C595        C596   1.403       .  A
C595       Br610   1.934       .  S
C596        C599   1.492       .  S
C596        C597   1.412       .  A
C597        C598   1.415       .  A
C597       Br605   1.928       .  S
C598       Br609   1.927       .  S
C599        C600   1.406       .  A
C599        C604   1.409       .  A
C600        C601   1.408       .  A
C600       Br611   1.934       .  S
C601        C602   1.412       .  A
C601       Br607   1.909       .  S
C602        C603   1.413       .  A
C603        C604   1.413       .  A
C603       Br612   1.926       .  S
C604       Br608   1.924       .  S
C613        C614   1.418       .  A
C613        C618   1.423       .  A
C614        C615   1.413       .  A
C614       Br626   1.929       .  S
C615        C616   1.408       .  A
C615       Br630   1.930       .  S
C616        C619   1.495   1_655  S
C616        C617   1.407       .  A
C617        C618   1.412       .  A
C617       Br625   1.932       .  S
C618       Br629   1.933       .  S
C619        C620   1.411       .  A
C619        C624   1.406       .  A
C620        C621   1.415       .  A
C620       Br631   1.928       .  S
C621        C622   1.416       .  A
C621       Br627   1.929       .  S
C622        C623   1.422       .  A
C623        C624   1.409       .  A
C623       Br632   1.932       .  S
C624       Br628   1.933       .  S
C633        C634   1.432       .  A
C633        C638   1.416       .  A
C634        C635   1.408       .  A
C634       Br646   1.938       .  S
C635        C636   1.402       .  A
C635       Br650   1.938       .  S
C636        C639   1.490       .  S
C636        C637   1.411       .  A
C637        C638   1.413       .  A
C637       Br645   1.930       .  S
C638       Br649   1.928       .  S
C639        C640   1.409       .  A
C639        C644   1.411       .  A
C640        C641   1.406       .  A
C640       Br651   1.928       .  S
C641        C642   1.409       .  A
C641       Br647   1.926       .  S
C642        C643   1.415       .  A
C643        C644   1.410       .  A
C643       Br652   1.930       .  S
C644       Br648   1.931       .  S
C653        C654   1.416       .  A
C653        C658   1.412       .  A
C654        C655   1.411       .  A
C654       Br666   1.930       .  S
C655        C656   1.409       .  A
C655       Br670   1.929       .  S
C656        C659   1.489       .  S
C656        C657   1.409       .  A
C657        C658   1.406       .  A
C657       Br665   1.933       .  S
C658       Br669   1.928       .  S
C659        C660   1.403       .  A
C659        C664   1.403       .  A
C660        C661   1.410       .  A
C660       Br671   1.933       .  S
C661        C662   1.426       .  A
C661       Br667   1.928       .  S
C662        C663   1.430       .  A
C663        C664   1.411       .  A
C663       Br672   1.936       .  S
C664       Br668   1.935       .  S
C673        C674   1.416       .  A
C673        C678   1.414       .  A
C674        C675   1.406       .  A
C674       Br686   1.933       .  S
C675        C676   1.406       .  A
C675       Br690   1.931       .  S
C676        C679   1.480       .  S
C676        C677   1.406       .  A
C677        C678   1.406       .  A
C677       Br685   1.931       .  S
C678       Br689   1.931       .  S
C679        C680   1.403   1_655  A
C679        C684   1.408   1_655  A
C680        C681   1.402       .  A
C680       Br691   1.936   1_455  S
C681        C682   1.420       .  A
C681       Br687   1.933       .  S
C682        C683   1.414       .  A
C683        C684   1.412       .  A
C683       Br692   1.927       .  S
C684       Br688   1.929   1_455  S
C693        C694   1.422       .  A
C693        C698   1.420       .  A
C694        C695   1.408       .  A
C694       Br706   1.924       .  S
C695        C696   1.405       .  A
C695       Br710   1.938       .  S
C696        C699   1.492       .  S
C696        C697   1.408       .  A
C697        C698   1.416       .  A
C697       Br705   1.928       .  S
C698       Br709   1.929       .  S
C699        C700   1.408       .  A
C699        C704   1.408       .  A
C700        C701   1.410       .  A
C700       Br711   1.930       .  S
C701        C702   1.416       .  A
C701       Br707   1.930       .  S
C702        C703   1.419       .  A
C703        C704   1.411       .  A
C703       Br712   1.929       .  S
C704       Br708   1.931       .  S
C713        C714   1.407       .  A
C713        C718   1.410       .  A
C714        C715   1.407       .  A
C714       Br726   1.920       .  S
C715        C716   1.409       .  A
C715       Br730   1.929   1_554  S
C716        C719   1.486   1_554  S
C716        C717   1.409       .  A
C717        C718   1.408       .  A
C717       Br725   1.928       .  S
C718       Br729   1.928       .  S
C719        C720   1.405       .  A
C719        C724   1.403       .  A
C720        C721   1.409       .  A
C720       Br731   1.936       .  S
C721        C722   1.427       .  A
C721       Br727   1.936       .  S
C722        C723   1.425       .  A
C723        C724   1.411       .  A
C723       Br732   1.933       .  S
C724       Br728   1.931       .  S
C733        C734   1.416       .  A
C733        C738   1.422       .  A
C734        C735   1.406       .  A
C734       Br746   1.933       .  S
C735        C736   1.408       .  A
C735       Br750   1.932       .  S
C736        C739   1.481       .  S
C736        C737   1.404       .  A
C737        C738   1.408       .  A
C737       Br745   1.929       .  S
C738       Br749   1.930       .  S
C739        C740   1.405       .  A
C739        C744   1.406       .  A
C740        C741   1.409       .  A
C740       Br751   1.927       .  S
C741        C742   1.418       .  A
C741       Br747   1.930       .  S
C742        C743   1.420       .  A
C743        C744   1.405       .  A
C743       Br752   1.937       .  S
C744       Br748   1.935       .  S
C753        C754   1.423       .  A
C753        C758   1.418       .  A
C754        C755   1.418       .  A
C754       Br766   1.929       .  S
C755        C756   1.409       .  A
C755       Br770   1.931       .  S
C756        C759   1.510       .  S
C756        C757   1.411       .  A
C757        C758   1.419       .  A
C757       Br765   1.928       .  S
C758       Br769   1.928       .  S
C759        C760   1.411       .  A
C759        C764   1.411       .  A
C760        C761   1.415       .  A
C760       Br771   1.927       .  S
C761        C762   1.419       .  A
C761       Br767   1.929       .  S
C762        C763   1.423       .  A
C763        C764   1.420       .  A
C763       Br772   1.932       .  S
C764       Br768   1.929       .  S
C773        C774   1.408       .  A
C773        C778   1.409       .  A
C774        C775   1.406       .  A
C774       Br786   1.926       .  S
C775        C776   1.410       .  A
C775       Br790   1.931       .  S
C776        C779   1.484       .  S
C776        C777   1.410       .  A
C777        C778   1.408       .  A
C777       Br785   1.929       .  S
C778       Br789   1.929       .  S
C779        C780   1.407       .  A
C779        C784   1.406       .  A
C780        C781   1.408       .  A
C780       Br791   1.933       .  S
C781        C782   1.418       .  A
C781       Br787   1.931       .  S
C782        C783   1.418       .  A
C783        C784   1.407       .  A
C783       Br792   1.934   1_554  S
C784       Br788   1.931       .  S
C793        C794   1.412       .  A
C793        C798   1.410       .  A
C794        C795   1.414       .  A
C794       Br806   1.929       .  S
C795        C796   1.412       .  A
C795       Br810   1.928       .  S
C796        C799   1.499       .  S
C796        C797   1.411       .  A
C797        C798   1.411       .  A
C797       Br805   1.927       .  S
C798       Br809   1.928       .  S
C799        C800   1.406       .  A
C799        C804   1.408       .  A
C800        C801   1.415   1_556  A
C800       Br811   1.931       .  S
C801        C802   1.428       .  A
C801       Br807   1.935       .  S
C802        C803   1.425   1_554  A
C803        C804   1.414       .  A
C803       Br812   1.934   1_556  S
C804       Br808   1.934       .  S
C813        C814   1.405       .  A
C813        C818   1.409       .  A
C814        C815   1.406       .  A
C814       Br826   1.925       .  S
C815        C816   1.410       .  A
C815       Br830   1.929       .  S
C816        C819   1.487       .  S
C816        C817   1.411       .  A
C817        C818   1.409       .  A
C817       Br825   1.929       .  S
C818       Br829   1.929       .  S
C819        C820   1.405       .  A
C819        C824   1.404       .  A
C820        C821   1.410       .  A
C820       Br831   1.936       .  S
C821        C822   1.428       .  A
C821       Br827   1.936       .  S
C822        C823   1.424       .  A
C823        C824   1.411       .  A
C823       Br832   1.934       .  S
C824       Br828   1.931       .  S
C833        C834   1.427       .  A
C833        C838   1.425       .  A
C834        C835   1.418       .  A
C834       Br846   1.932       .  S
C835        C836   1.408       .  A
C835       Br850   1.931       .  S
C836        C839   1.504       .  S
C836        C837   1.408       .  A
C837        C838   1.415       .  A
C837       Br845   1.931       .  S
C838       Br849   1.933       .  S
C839        C840   1.413       .  A
C839        C844   1.412       .  A
C840        C841   1.413       .  A
C840       Br851   1.925       .  S
C841        C842   1.410       .  A
C841       Br847   1.929       .  S
C842        C843   1.414       .  A
C843        C844   1.415       .  A
C843       Br852   1.931       .  S
C844       Br848   1.928       .  S
C853        C854   1.410       .  A
C853        C858   1.412       .  A
C854        C855   1.412       .  A
C854       Br866   1.929       .  S
C855        C856   1.412       .  A
C855       Br870   1.928       .  S
C856        C859   1.489   1_565  S
C856        C857   1.407       .  A
C857        C858   1.406       .  A
C857       Br865   1.931       .  S
C858       Br869   1.929       .  S
C859        C860   1.411       .  A
C859        C864   1.407       .  A
C860        C861   1.415       .  A
C860       Br871   1.927       .  S
C861        C862   1.413       .  A
C861       Br867   1.927       .  S
C862        C863   1.416       .  A
C863        C864   1.405       .  A
C863       Br872   1.933       .  S
C864       Br868   1.934       .  S
C873        C874   1.427       .  A
C873        C878   1.417       .  A
C874        C875   1.412       .  A
C874       Br886   1.931       .  S
C875        C876   1.406       .  A
C875       Br890   1.935       .  S
C876        C879   1.499       .  S
C876        C877   1.411       .  A
C877        C878   1.415       .  A
C877       Br885   1.929       .  S
C878       Br889   1.930       .  S
C879        C880   1.410       .  A
C879        C884   1.413       .  A
C880        C881   1.409       .  A
C880       Br891   1.927       .  S
C881        C882   1.413       .  A
C881       Br887   1.932       .  S
C882        C883   1.415       .  A
C883        C884   1.415       .  A
C883       Br892   1.929       .  S
C884       Br888   1.929       .  S
C893        C894   1.420       .  A
C893        C898   1.415       .  A
C894        C895   1.409       .  A
C894       Br906   1.932       .  S
C895        C896   1.407       .  A
C895       Br910   1.934   1_565  S
C896        C899   1.494   1_565  S
C896        C897   1.410       .  A
C897        C898   1.414       .  A
C897       Br905   1.928       .  S
C898       Br909   1.930       .  S
C899        C900   1.408       .  A
C899        C904   1.410       .  A
C900        C901   1.409       .  A
C900       Br911   1.932       .  S
C901        C902   1.417       .  A
C901       Br907   1.931       .  S
C902        C903   1.412       .  A
C903        C904   1.413       .  A
C903       Br912   1.926       .  S
C904       Br908   1.927       .  S
C913        C914   1.424       .  A
C913        C918   1.423       .  A
C914        C915   1.408       .  A
C914       Br926   1.937       .  S
C915        C916   1.407       .  A
C915       Br930   1.935       .  S
C916        C919   1.497       .  S
C916        C917   1.410       .  A
C917        C918   1.416       .  A
C917       Br925   1.930       .  S
C918       Br929   1.932       .  S
C919        C920   1.411       .  A
C919        C924   1.411       .  A
C920        C921   1.412       .  A
C920       Br931   1.929       .  S
C921        C922   1.413   1_556  A
C921       Br927   1.930   1_556  S
C922        C923   1.416   1_554  A
C923        C924   1.411       .  A
C923       Br932   1.933   1_556  S
C924       Br928   1.933       .  S
C933        C934   1.407       .  A
C933        C938   1.409       .  A
C934        C935   1.411       .  A
C934       Br946   1.926       .  S
C935        C936   1.412       .  A
C935       Br950   1.927       .  S
C936        C939   1.494       .  S
C936        C937   1.412       .  A
C937        C938   1.410       .  A
C937       Br945   1.930       .  S
C938       Br949   1.929       .  S
C939        C940   1.407       .  A
C939        C944   1.409       .  A
C940        C941   1.410       .  A
C940       Br951   1.932       .  S
C941        C942   1.419       .  A
C941       Br947   1.933       .  S
C942        C943   1.418       .  A
C943        C944   1.415       .  A
C943       Br952   1.928       .  S
C944       Br948   1.929       .  S
C953        C954   1.417       .  A
C953        C958   1.417       .  A
C954        C955   1.416       .  A
C954       Br966   1.931   1_556  S
C955        C956   1.412       .  A
C955       Br970   1.929   1_556  S
C956        C959   1.506       .  S
C956        C957   1.411       .  A
C957        C958   1.416       .  A
C957       Br965   1.930       .  S
C958       Br969   1.928       .  S
C959        C960   1.409       .  A
C959        C964   1.414       .  A
C960        C961   1.412       .  A
C960       Br971   1.934   1_556  S
C961        C962   1.422       .  A
C961       Br967   1.935   1_556  S
C962        C963   1.417       .  A
C963        C964   1.420       .  A
C963       Br972   1.929       .  S
C964       Br968   1.928       .  S
C973        C974   1.422       .  A
C973        C978   1.415       .  A
C974        C975   1.409       .  A
C974       Br986   1.924       .  S
C975        C976   1.403       .  A
C975       Br990   1.933       .  S
C976        C979   1.497       .  S
C976        C977   1.411       .  A
C977        C978   1.418       .  A
C977       Br985   1.929       .  S
C978       Br989   1.920       .  S
C979        C980   1.409       .  A
C979        C984   1.408       .  A
C980        C981   1.413       .  A
C980       Br991   1.932       .  S
C981        C982   1.416       .  A
C981       Br987   1.920       .  S
C982        C983   1.415       .  A
C983        C984   1.412       .  A
C983       Br992   1.923       .  S
C984       Br988   1.925       .  S
C993        C994   1.414       .  A
C993        C998   1.419       .  A
C994        C995   1.408       .  A
C994      Br1006   1.928   1_554  S
C995        C996   1.406       .  A
C995      Br1010   1.926   1_554  S
C996        C999   1.481       .  S
C996        C997   1.406       .  A
C997        C998   1.406       .  A
C997      Br1005   1.933       .  S
C998      Br1009   1.932       .  S
C999       C1000   1.408       .  A
C999       C1004   1.406       .  A
C1000      C1001   1.406       .  A
C1000     Br1011   1.929   1_554  S
C1001      C1002   1.411       .  A
C1001     Br1007   1.924   1_554  S
C1002      C1003   1.414       .  A
C1003      C1004   1.407       .  A
C1003     Br1012   1.925       .  S
C1004     Br1008   1.927       .  S
C1013      C1014   1.417       .  A
C1013      C1018   1.418       .  A
C1014      C1015   1.409       .  A
C1014     Br1026   1.930       .  S
C1015      C1016   1.407       .  A
C1015     Br1030   1.932       .  S
C1016      C1019   1.489       .  S
C1016      C1017   1.407       .  A
C1017      C1018   1.411       .  A
C1017     Br1025   1.930       .  S
C1018     Br1029   1.930       .  S
C1019      C1020   1.407       .  A
C1019      C1024   1.410       .  A
C1020      C1021   1.411       .  A
C1020     Br1031   1.930       .  S
C1021      C1022   1.418       .  A
C1021     Br1027   1.930       .  S
C1022      C1023   1.411       .  A
C1023      C1024   1.408       .  A
C1023     Br1032   1.930       .  S
C1024     Br1028   1.929       .  S
C1033      C1034   1.416       .  A
C1033      C1038   1.419       .  A
C1034      C1035   1.410       .  A
C1034     Br1046   1.926       .  S
C1035      C1036   1.408       .  A
C1035     Br1050   1.929       .  S
C1036      C1039   1.497       .  S
C1036      C1037   1.410       .  A
C1037      C1038   1.413       .  A
C1037     Br1045   1.931       .  S
C1038     Br1049   1.930       .  S
C1039      C1040   1.411       .  A
C1039      C1044   1.405       .  A
C1040      C1041   1.415       .  A
C1040     Br1051   1.930       .  S
C1041      C1042   1.415       .  A
C1041     Br1047   1.925       .  S
C1042      C1043   1.424       .  A
C1043      C1044   1.411       .  A
C1043     Br1052   1.927       .  S
C1044     Br1048   1.933       .  S
C1053      C1054   1.421       .  A
C1053      C1058   1.418       .  A
C1054      C1055   1.411       .  A
C1054     Br1066   1.933       .  S
C1055      C1056   1.406       .  A
C1055     Br1070   1.930       .  S
C1056      C1059   1.487       .  S
C1056      C1057   1.407       .  A
C1057      C1058   1.407       .  A
C1057     Br1065   1.933       .  S
C1058     Br1069   1.930       .  S
C1059      C1060   1.410       .  A
C1059      C1064   1.408       .  A
C1060      C1061   1.410       .  A
C1060     Br1071   1.929       .  S
C1061      C1062   1.411       .  A
C1061     Br1067   1.929       .  S
C1062      C1063   1.411       .  A
C1063      C1064   1.408       .  A
C1063     Br1072   1.927       .  S
C1064     Br1068   1.929       .  S
C1073      C1074   1.408       .  A
C1073      C1078   1.407       .  A
C1074      C1075   1.407       .  A
C1074     Br1086   1.928       .  S
C1075      C1076   1.411       .  A
C1075     Br1090   1.929       .  S
C1076      C1079   1.490       .  S
C1076      C1077   1.412       .  A
C1077      C1078   1.409       .  A
C1077     Br1085   1.929       .  S
C1078     Br1089   1.929       .  S
C1079      C1080   1.406       .  A
C1079      C1084   1.405       .  A
C1080      C1081   1.409       .  A
C1080     Br1091   1.936       .  S
C1081      C1082   1.427       .  A
C1081     Br1087   1.937       .  S
C1082      C1083   1.428       .  A
C1083      C1084   1.413       .  A
C1083     Br1092   1.936       .  S
C1084     Br1088   1.933       .  S
C1093      C1094   1.418       .  A
C1093      C1098   1.423       .  A
C1094      C1095   1.410       .  A
C1094     Br1106   1.932       .  S
C1095      C1096   1.406       .  A
C1095     Br1110   1.929       .  S
C1096      C1099   1.484       .  S
C1096      C1097   1.406       .  A
C1097      C1098   1.404       .  A
C1097     Br1105   1.933       .  S
C1098     Br1109   1.939       .  S
C1099      C1100   1.405       .  A
C1099      C1104   1.405       .  A
C1100      C1101   1.409       .  A
C1100     Br1111   1.934       .  S
C1101      C1102   1.425       .  A
C1101     Br1107   1.936       .  S
C1102      C1103   1.419       .  A
C1103      C1104   1.407       .  A
C1103     Br1112   1.929       .  S
C1104     Br1108   1.933       .  S
C1113      C1114   1.425       .  A
C1113      C1118   1.419       .  A
C1114      C1115   1.413       .  A
C1114     Br1126   1.933       .  S
C1115      C1116   1.407       .  A
C1115     Br1130   1.933       .  S
C1116      C1119   1.497       .  S
C1116      C1117   1.408       .  A
C1117      C1118   1.414       .  A
C1117     Br1125   1.930       .  S
C1118     Br1129   1.928       .  S
C1119      C1120   1.411       .  A
C1119      C1124   1.409       .  A
C1120      C1121   1.414       .  A
C1120     Br1131   1.930       .  S
C1121      C1122   1.413       .  A
C1121     Br1127   1.926       .  S
C1122      C1123   1.416       .  A
C1123      C1124   1.411       .  A
C1123     Br1132   1.933       .  S
C1124     Br1128   1.929       .  S
C1133      C1134   1.413       .  A
C1133      C1138   1.418       .  A
C1134      C1135   1.412       .  A
C1134     Br1146   1.928       .  S
C1135      C1136   1.411       .  A
C1135     Br1150   1.928       .  S
C1136      C1139   1.487       .  S
C1136      C1137   1.404       .  A
C1137      C1138   1.404       .  A
C1137     Br1145   1.933       .  S
C1138     Br1149   1.926       .  S
C1139      C1140   1.406       .  A
C1139      C1144   1.406   1_556  A
C1140      C1141   1.410   1_556  A
C1140     Br1151   1.928       .  S
C1141      C1142   1.415       .  A
C1141     Br1147   1.918   1_554  S
C1142      C1143   1.413       .  A
C1143      C1144   1.409       .  A
C1143     Br1152   1.911       .  S
C1144     Br1148   1.933       .  S
C1153      C1154   1.423       .  A
C1153      C1158   1.416       .  A
C1154      C1155   1.415       .  A
C1154     Br1166   1.933       .  S
C1155      C1156   1.409       .  A
C1155     Br1170   1.931       .  S
C1156      C1159   1.500   1_545  S
C1156      C1157   1.409       .  A
C1157      C1158   1.414       .  A
C1157     Br1165   1.930       .  S
C1158     Br1169   1.922       .  S
C1159      C1160   1.413       .  A
C1159      C1164   1.411       .  A
C1160      C1161   1.415       .  A
C1160     Br1171   1.927       .  S
C1161      C1162   1.411       .  A
C1161     Br1167   1.930       .  S
C1162      C1163   1.412       .  A
C1163      C1164   1.411       .  A
C1163     Br1172   1.930       .  S
C1164     Br1168   1.930   1_565  S
C1173      C1174   1.415       .  A
C1173      C1178   1.416       .  A
C1174      C1175   1.411       .  A
C1174     Br1186   1.927       .  S
C1175      C1176   1.408       .  A
C1175     Br1190   1.926       .  S
C1176      C1179   1.489       .  S
C1176      C1177   1.410       .  A
C1177      C1178   1.406       .  A
C1177     Br1185   1.929       .  S
C1178     Br1189   1.934       .  S
C1179      C1180   1.410       .  A
C1179      C1184   1.408       .  A
C1180      C1181   1.408       .  A
C1180     Br1191   1.930       .  S
C1181      C1182   1.409       .  A
C1181     Br1187   1.927       .  S
C1182      C1183   1.415       .  A
C1183      C1184   1.410       .  A
C1183     Br1192   1.928       .  S
C1184     Br1188   1.929       .  S
C1193      C1194   1.420       .  A
C1193      C1198   1.418       .  A
C1194      C1195   1.411       .  A
C1194     Br1206   1.933       .  S
C1195      C1196   1.407       .  A
C1195     Br1210   1.931       .  S
C1196      C1199   1.489       .  S
C1196      C1197   1.410       .  A
C1197      C1198   1.406       .  A
C1197     Br1205   1.937       .  S
C1198     Br1209   1.934       .  S
C1199      C1200   1.411       .  A
C1199      C1204   1.404       .  A
C1200      C1201   1.414       .  A
C1200     Br1211   1.929       .  S
C1201      C1202   1.416       .  A
C1201     Br1207   1.930       .  S
C1202      C1203   1.421       .  A
C1203      C1204   1.402       .  A
C1203     Br1212   1.931       .  S
C1204     Br1208   1.936       .  S
C1213      C1214   1.428       .  A
C1213      C1218   1.431       .  A
C1214      C1215   1.418       .  A
C1214     Br1226   1.934       .  S
C1215      C1216   1.407       .  A
C1215     Br1230   1.931       .  S
C1216      C1219   1.504       .  S
C1216      C1217   1.407       .  A
C1217      C1218   1.416       .  A
C1217     Br1225   1.935       .  S
C1218     Br1229   1.935       .  S
C1219      C1220   1.411       .  A
C1219      C1224   1.410       .  A
C1220      C1221   1.410       .  A
C1220     Br1231   1.910       .  S
C1221      C1222   1.409       .  A
C1221     Br1227   1.933       .  S
C1222      C1223   1.418       .  A
C1223      C1224   1.414       .  A
C1223     Br1232   1.930       .  S
C1224     Br1228   1.930       .  S
C1233      C1234   1.413       .  A
C1233      C1238   1.417       .  A
C1234      C1235   1.403       .  A
C1234     Br1246   1.934       .  S
C1235      C1236   1.406       .  A
C1235     Br1250   1.930       .  S
C1236      C1239   1.476   1_565  S
C1236      C1237   1.406       .  A
C1237      C1238   1.406       .  A
C1237     Br1245   1.931   1_565  S
C1238     Br1249   1.932       .  S
C1239      C1240   1.406       .  A
C1239      C1244   1.404       .  A
C1240      C1241   1.408       .  A
C1240     Br1251   1.929       .  S
C1241      C1242   1.413       .  A
C1241     Br1247   1.928       .  S
C1242      C1243   1.418       .  A
C1243      C1244   1.401       .  A
C1243     Br1252   1.933       .  S
C1244     Br1248   1.936       .  S
C1253      C1254   1.425       .  A
C1253      C1258   1.428       .  A
C1254      C1255   1.407       .  A
C1254     Br1266   1.936       .  S
C1255      C1256   1.404       .  A
C1255     Br1270   1.935       .  S
C1256      C1259   1.485       .  S
C1256      C1257   1.405       .  A
C1257      C1258   1.410       .  A
C1257     Br1265   1.934       .  S
C1258     Br1269   1.937       .  S
C1259      C1260   1.404       .  A
C1259      C1264   1.404       .  A
C1260      C1261   1.410       .  A
C1260     Br1271   1.935       .  S
C1261      C1262   1.429       .  A
C1261     Br1267   1.937       .  S
C1262      C1263   1.427       .  A
C1263      C1264   1.408       .  A
C1263     Br1272   1.936       .  S
C1264     Br1268   1.934       .  S
C1273      C1274   1.414       .  A
C1273      C1278   1.417       .  A
C1274      C1275   1.414       .  A
C1274     Br1286   1.927       .  S
C1275      C1276   1.410       .  A
C1275     Br1290   1.928       .  S
C1276      C1279   1.495       .  S
C1276      C1277   1.407       .  A
C1277      C1278   1.409       .  A
C1277     Br1285   1.932       .  S
C1278     Br1289   1.929       .  S
C1279      C1280   1.409       .  A
C1279      C1284   1.408       .  A
C1280      C1281   1.414       .  A
C1280     Br1291   1.928       .  S
C1281      C1282   1.416   1_554  A
C1281     Br1287   1.928   1_554  S
C1282      C1283   1.416   1_556  A
C1283      C1284   1.409       .  A
C1283     Br1292   1.922       .  S
C1284     Br1288   1.929       .  S
C1293      C1294   1.431       .  A
C1293      C1298   1.413       .  A
C1294      C1295   1.399       .  A
C1294     Br1306   1.938       .  S
C1295      C1296   1.400       .  A
C1295     Br1310   1.942       .  S
C1296      C1299   1.478       .  S
C1296      C1297   1.410       .  A
C1297      C1298   1.410       .  A
C1297     Br1305   1.930       .  S
C1298     Br1309   1.929       .  S
C1299      C1300   1.403       .  A
C1299      C1304   1.406       .  A
C1300      C1301   1.403       .  A
C1300     Br1311   1.928       .  S
C1301      C1302   1.413       .  A
C1301     Br1307   1.916       .  S
C1302      C1303   1.411       .  A
C1303      C1304   1.402       .  A
C1303     Br1312   1.930       .  S
C1304     Br1308   1.920       .  S
