geometry optimzed in LAMMPS
_audit_creation_date              2020-12-01 
_audit_creation_method            'lammps2cif' 
_symmetry_space_group_name_H-M    'P1' 
_symmetry_Int_Tables_number       1 
_symmetry_cell_setting            triclinic 
loop_ 
_symmetry_equiv_pos_as_xyz 
  x,y,z 
_cell_length_a                    33.49570203 
_cell_length_b                    33.50413047749126 
_cell_length_c                    194.19049307725848 
_cell_angle_alpha                 89.80543152408717 
_cell_angle_beta                  90.12054577750989 
_cell_angle_gamma                 119.96990711915852 
loop_ 
_atom_site_label 
_atom_site_type_symbol 
_atom_site_fract_x 
_atom_site_fract_y 
_atom_site_fract_z 
_atom_site_charge 
O1          O  0.82505802  0.18290667  0.63910690    -0.79500
O2          O  0.77266299  0.15035122  0.60870190    -0.64200
O3          O  0.78087004  0.13046088  0.62773915    -1.10800
C4          C  0.93072481  0.15925507  0.62137187     1.07400
O5          O  0.80006404  0.10565681  0.60556705    -0.77400
O6          O  0.83651675  0.07219762  0.61475923    -0.65000
Ni7        Ni  0.76911151  0.16547615  0.63427027     1.34900
C8          C  0.82199367  0.05389624  0.62062435     0.86100
O9          O  0.71343767  0.12824571  0.61897428    -0.78000
O10         O  0.71261572  0.15201044  0.62975701    -0.88200
C11         C  0.77431492  0.12291855  0.60443886     0.85700
O12         O  0.80089283  0.22397446  0.62992682    -0.66400
O13         O  0.91606363  0.15420615  0.61517508    -0.85700
C14         C  0.80656805  0.23493439  0.62362970     0.86500
C15         C  0.69457095  0.13868660  0.62380121     1.08100
H16         H  0.85800341  0.18887194  0.61752391     0.39900
O17         O  0.83855134  0.15587720  0.61795680    -1.08400
O18         O  0.81992129  0.07633283  0.62578967    -0.65000
Ni19       Ni  0.84266393  0.14137726  0.62737458     1.26300
O20         O  0.79642472  0.20593368  0.61884131    -0.65300
O21         O  0.90538869  0.15380986  0.62662250    -0.77600
C22         C  0.83784743  0.15560864  0.64134461     0.85900
O23         O  0.84344928  0.12964423  0.63714268    -0.64700
Ni24       Ni  0.85732882  0.13098561  0.61074651     1.27400
Ni25       Ni  0.77590774  0.14151686  0.61826140     1.26100
H26         H  0.75991461  0.09825346  0.62869197     0.40400
O27         O  0.88064937  0.21735383  0.72889026    -0.79500
O28         O  0.83977005  0.18497277  0.69705798    -0.64200
O29         O  0.84174790  0.16767327  0.71658214    -1.10800
C30         C  0.99266040  0.19212729  0.71176481     1.07400
O31         O  0.86751631  0.13844269  0.69615591    -0.77400
O32         O  0.90586371  0.10885154  0.70514673    -0.65000
Ni33       Ni  0.82635816  0.19926178  0.72315149     1.34900
C34         C  0.88277956  0.08991935  0.71053891     0.86100
O35         O  0.77579487  0.16160146  0.70726445    -0.78000
O36         O  0.77040381  0.18280702  0.71809272    -0.88200
C37         C  0.85229665  0.16208657  0.69330004     0.85700
O38         O  0.85675370  0.25807976  0.71879804    -0.66400
O39         O  0.98367529  0.19309587  0.70539870    -0.85700
C40         C  0.86127321  0.26940871  0.71248316     0.86500
C41         C  0.75354567  0.16794495  0.71208892     1.08100
H42         H  0.92224955  0.22653077  0.70692448     0.39900
O43         O  0.90307499  0.19348698  0.70733384    -1.08400
O44         O  0.87666931  0.11268870  0.71521622    -0.65000
Ni45       Ni  0.90284129  0.17772550  0.71671065     1.26300
O46         O  0.85570373  0.24177668  0.70759750    -0.65300
O47         O  0.96417951  0.18584364  0.71659086    -0.77600
C48         C  0.90197891  0.19562466  0.73031535     0.85900
O49         O  0.90043260  0.16550844  0.72623919    -0.64700
Ni50       Ni  0.92514749  0.16690433  0.70084717     1.27400
Ni51       Ni  0.83938124  0.17777320  0.70696881     1.26100
H52         H  0.82040646  0.13539332  0.71741338     0.40400
O53         O  0.81892667  0.63261789  0.64142540    -0.79500
O54         O  0.84167210  0.61300280  0.60948262    -0.64200
O55         O  0.85948242  0.64026352  0.62861650    -1.10800
C56         C  0.83007235  0.76049915  0.62186518     1.07400
O57         O  0.88692232  0.68540033  0.60651048    -0.77400
O58         O  0.91803369  0.75612167  0.61552795    -0.65000
Ni59       Ni  0.82058095  0.59148853  0.63473129     1.34900
C60         C  0.93583298  0.75892671  0.62141333     0.86100
O61         O  0.86469585  0.57810635  0.61995491    -0.78000
O62         O  0.81948752  0.54375232  0.62899961    -0.88200
C63         C  0.86995936  0.64256126  0.60530333     0.85700
O64         O  0.76548187  0.58412744  0.63066801    -0.66400
O65         O  0.83423768  0.75066335  0.61564822    -0.85700
C66         C  0.75379275  0.57187825  0.62447758     0.86500
C67         C  0.84281981  0.54344430  0.62384134     1.08100
H68         H  0.80110032  0.65898427  0.61820942     0.39900
O69         O  0.83407570  0.67255111  0.61867617    -1.08400
O70         O  0.91348918  0.73294593  0.62646211    -0.65000
Ni71       Ni  0.84863748  0.69114720  0.62806548     1.26300
O72         O  0.78362419  0.58009466  0.61979801    -0.65300
O73         O  0.83684625  0.74170320  0.62715349    -0.77600
C74         C  0.84442465  0.67546583  0.64252711     0.85900
O75         O  0.86206689  0.70509925  0.63769294    -0.64700
Ni76       Ni  0.85964175  0.71640421  0.61143525     1.27400
Ni77       Ni  0.84912299  0.62501388  0.61909999     1.26100
H78         H  0.89131543  0.65076888  0.62974326     0.40400
O79         O  0.77755699  0.62917944  0.72856789    -0.79500
O80         O  0.82164789  0.62148995  0.69734621    -0.64200
O81         O  0.83154624  0.63880012  0.71689169    -1.10800
C82         C  0.80847038  0.76515151  0.71124924     1.07400
O83         O  0.86928539  0.69594866  0.69670403    -0.77400
O84         O  0.89389704  0.76389073  0.70557061    -0.65000
Ni85       Ni  0.79645015  0.59197384  0.72331948     1.34900
C86         C  0.91233314  0.75846975  0.71092903     0.86100
O87         O  0.84006952  0.57880159  0.70800926    -0.78000
O88         O  0.81419364  0.55220608  0.71873970    -0.88200
C89         C  0.84731339  0.65725076  0.69376709     0.85700
O90         O  0.73923006  0.56402042  0.71843834    -0.66400
O91         O  0.80857021  0.75487791  0.70492921    -0.85700
C92         C  0.73033975  0.55726600  0.71204071     0.86500
C93         C  0.83159218  0.55019509  0.71296504     1.08100
H94         H  0.77662561  0.66160571  0.70668912     0.39900
O95         O  0.80949707  0.67520664  0.70727801    -1.08400
O96         O  0.88880432  0.72844199  0.71546180    -0.65000
Ni97       Ni  0.82302422  0.69068611  0.71666098     1.26300
O98         O  0.76017565  0.57955358  0.70738625    -0.65300
O99         O  0.81568738  0.74427496  0.71619275    -0.77600
C100        C  0.80047102  0.67204380  0.73005348     0.85900
O101        O  0.83269698  0.70034229  0.72620632    -0.64700
Ni102      Ni  0.83791025  0.72405780  0.70084758     1.27400
Ni103      Ni  0.82470569  0.62688833  0.70727604     1.26100
H104        H  0.86331898  0.64894480  0.71801615     0.40400
O105        O  0.36408193  0.16327627  0.63800580    -0.79500
O106        O  0.37578311  0.22477899  0.60851686    -0.64200
O107        O  0.35047758  0.21112123  0.62768170    -1.10800
C108        C  0.22227371  0.06736926  0.62140503     1.07400
O109        O  0.30338242  0.19979778  0.60553364    -0.77400
O110        O  0.24054483  0.17496138  0.61580221    -0.65000
Ni111      Ni  0.39826395  0.22323606  0.63405986     1.34900
C112        C  0.23517723  0.17949937  0.62216651     0.86100
O113        O  0.41658791  0.28095369  0.61918871    -0.78000
O114        O  0.43559405  0.28374517  0.63034474    -0.88200
C115        C  0.34646825  0.22351950  0.60427467     0.85700
O116        O  0.43103144  0.20039453  0.62902320    -0.66400
O117        O  0.22603027  0.08704300  0.61559629    -0.85700
C118        C  0.43023187  0.18880275  0.62281468     0.86500
C119        C  0.44139230  0.30242081  0.62441639     1.08100
H120        H  0.32583261  0.13643361  0.61641969     0.39900
O121        O  0.31434305  0.15692044  0.61756041    -1.08400
O122        O  0.25576627  0.17041963  0.62693593    -0.65000
Ni123      Ni  0.30010505  0.14917180  0.62723328     1.26300
O124        O  0.40627291  0.19405039  0.61822320    -0.65300
O125        O  0.25037524  0.08672925  0.62638164    -0.77600
C126        C  0.32564420  0.15013134  0.64084708     0.85900
O127        O  0.29189441  0.14473877  0.63714397    -0.64700
Ni128      Ni  0.26710555  0.14442831  0.61102135     1.27400
Ni129      Ni  0.36521586  0.21877159  0.61815623     1.26100
H130        H  0.33849562  0.23162382  0.62885551     0.40400
O131        O  0.37677522  0.11169131  0.72761556    -0.79500
O132        O  0.37910231  0.16029342  0.69618719    -0.64200
O133        O  0.36424633  0.15450660  0.71584409    -1.10800
C134        C  0.23696901  0.00470700  0.71078809     1.07400
O135        O  0.30486823  0.13386818  0.69586483    -0.77400
O136        O  0.23780877  0.09207468  0.70497373    -0.65000
Ni137      Ni  0.41265118  0.16661445  0.72203393     1.34900
C138        C  0.24242506  0.11381885  0.71051624     0.86100
O139        O  0.42406211  0.22203135  0.70656126    -0.78000
O140        O  0.45246859  0.22298193  0.71712250    -0.88200
C141        C  0.34259562  0.14842669  0.69270757     0.85700
O142        O  0.43726597  0.13475411  0.71713582    -0.66400
O143        O  0.24505578  0.01497096  0.70440860    -0.85700
C144        C  0.44245972  0.13119850  0.71074272     0.86500
C145        C  0.45404731  0.24218610  0.71133227     1.08100
H146        H  0.33918909  0.07586628  0.70572713     0.39900
O147        O  0.32591486  0.09544805  0.70639757    -1.08400
O148        O  0.27292766  0.12018820  0.71497851    -0.65000
Ni149      Ni  0.31250570  0.09371213  0.71587247     1.26300
O150        O  0.42087267  0.13995792  0.70611928    -0.65300
O151        O  0.25957216  0.03258666  0.71564213    -0.77600
C152        C  0.33415573  0.09037733  0.72924022     0.85900
O153        O  0.30475235  0.09344102  0.72551179    -0.64700
Ni154      Ni  0.27620554  0.07476058  0.70014385     1.27400
Ni155      Ni  0.37485441  0.15881408  0.70613913     1.26100
H156        H  0.35407961  0.17603336  0.71699465     0.40400
O157        O  0.19080394  0.36712262  0.85968332    -0.79500
O158        O  0.24004694  0.38354000  0.89141615    -0.64200
O159        O  0.22730497  0.36054230  0.87217373    -1.10800
C160        C  0.08372095  0.23323451  0.87968677     1.07400
O161        O  0.22360524  0.31209421  0.89336910    -0.77400
O162        O  0.18122963  0.24050751  0.88436147    -0.65000
Ni163      Ni  0.23147861  0.40893532  0.86643420     1.34900
C164        C  0.19133254  0.23852429  0.87812503     0.86100
O165        O  0.29438858  0.42681263  0.88073986    -0.78000
O166        O  0.27553210  0.45843740  0.87218241    -0.88200
C167        C  0.24488334  0.35461646  0.89500553     0.85700
O168        O  0.18096481  0.40864980  0.87090824    -0.66400
O169        O  0.10138248  0.24106526  0.88572768    -0.85700
C170        C  0.18270782  0.42111838  0.87710668     0.86500
C171        C  0.30217896  0.46138424  0.87707319     1.08100
H172        H  0.15245713  0.33340217  0.88344385     0.39900
O173        O  0.17391709  0.32282230  0.88245150    -1.08400
O174        O  0.19215568  0.26605925  0.87350536    -0.65000
Ni175      Ni  0.16686898  0.30693543  0.87299787     1.26300
O176        O  0.20680375  0.41470430  0.88163009    -0.65300
O177        O  0.10582202  0.25498461  0.87427417    -0.77600
C178        C  0.17173543  0.32416217  0.85859161     0.85900
O179        O  0.16223533  0.29457620  0.86333867    -0.64700
Ni180      Ni  0.16277896  0.27786552  0.88927886     1.27400
Ni181      Ni  0.23398579  0.37461735  0.88176036     1.26100
H182        H  0.24962971  0.35209366  0.87074619     0.40400
O183        O  0.14589107  0.33802475  0.77194811    -0.79500
O184        O  0.18689814  0.34565622  0.80359635    -0.64200
O185        O  0.18520006  0.32614943  0.78412768    -1.10800
C186        C  0.03712769  0.19728934  0.78943233     1.07400
O187        O  0.16737178  0.27321826  0.80434906    -0.77400
O188        O  0.12998664  0.20445776  0.79543145    -0.65000
Ni189      Ni  0.20027107  0.37356270  0.77756713     1.34900
C190        C  0.14739951  0.20634608  0.78957735     0.86100
O191        O  0.24953403  0.38933728  0.79350554    -0.78000
O192        O  0.25629073  0.41342020  0.78250548    -0.88200
C193        C  0.17930267  0.31114549  0.80728533     0.85700
O194        O  0.16933780  0.40107687  0.78191076    -0.66400
O195        O  0.04938259  0.20456335  0.79575391    -0.85700
C196        C  0.15916482  0.40406596  0.78810119     0.86500
C197        C  0.27222260  0.41689897  0.78860595     1.08100
H198        H  0.10436080  0.29959561  0.79416753     0.39900
O199        O  0.12539955  0.28803938  0.79352005    -1.08400
O200        O  0.15061760  0.23457106  0.78492888    -0.65000
Ni201      Ni  0.12425106  0.27412727  0.78407006     1.26300
O202        O  0.16465422  0.38211807  0.79305361    -0.65300
O203        O  0.06304864  0.22104300  0.78442981    -0.77600
C204        C  0.12337742  0.29529038  0.77046673     0.85900
O205        O  0.12418082  0.26559688  0.77442667    -0.64700
Ni206      Ni  0.10858461  0.24013453  0.80000996     1.27400
Ni207      Ni  0.18727990  0.33895551  0.79374633     1.26100
H208        H  0.20689144  0.31560410  0.78335079     0.40400
O209        O  0.64128841  0.82766102  0.86038574    -0.79500
O210        O  0.63678737  0.85290575  0.89123241    -0.64200
O211        O  0.66308222  0.87974074  0.87227196    -1.10800
C212        C  0.78039195  0.84268191  0.87703616     1.07400
O213        O  0.70993675  0.89773517  0.89400755    -0.77400
O214        O  0.77398647  0.93515576  0.88409584    -0.65000
Ni215      Ni  0.61520265  0.85737035  0.86563396     1.34900
C216        C  0.77882309  0.95010530  0.87796871     0.86100
O217        O  0.59839258  0.87947633  0.88163027    -0.78000
O218        O  0.58454286  0.88454513  0.87043036    -0.88200
C219        C  0.66726855  0.87955621  0.89545739     0.85700
O220        O  0.57440123  0.79910233  0.86968719    -0.66400
O221        O  0.77823156  0.85578961  0.88313240    -0.85700
C222        C  0.57377192  0.78001567  0.87536760     0.86500
C223        C  0.57601094  0.88561645  0.87681054     1.08100
H224        H  0.68064618  0.81625300  0.88214401     0.39900
O225        O  0.69455343  0.84909058  0.88150018    -1.08400
O226        O  0.75688980  0.92465386  0.87286448    -0.65000
Ni227      Ni  0.70863307  0.86087242  0.87194664     1.26300
O228        O  0.60240791  0.80109706  0.88018454    -0.65300
O229        O  0.75427091  0.84164029  0.87212995    -0.77600
C230        C  0.68236909  0.84433278  0.85824396     0.85900
O231        O  0.71649442  0.86873258  0.86215404    -0.64700
Ni232      Ni  0.74199055  0.87585862  0.88818759     1.27400
Ni233      Ni  0.64726778  0.86493826  0.88167654     1.26100
H234        H  0.67873387  0.91322126  0.87190322     0.40400
O235        O  0.64292216  0.75094363  0.77174964    -0.79500
O236        O  0.64386945  0.78359067  0.80373672    -0.64200
O237        O  0.65581736  0.79851944  0.78418391    -1.10800
C238        C  0.78476854  0.77530167  0.78807431     1.07400
O239        O  0.71856035  0.82979573  0.80420420    -0.77400
O240        O  0.78366400  0.85706946  0.79474722    -0.65000
Ni241      Ni  0.60588682  0.76296841  0.77819209     1.34900
C242        C  0.77764304  0.87689307  0.78961283     0.86100
O243        O  0.59972976  0.80568346  0.79395268    -0.78000
O244        O  0.56439421  0.77317107  0.78392375    -0.88200
C245        C  0.68045247  0.80653332  0.80724898     0.85700
O246        O  0.58751314  0.70530858  0.78251617    -0.66400
O247        O  0.77482165  0.77239781  0.79445769    -0.85700
C248        C  0.58041495  0.69515797  0.78886069     0.86500
C249        C  0.56664685  0.79308177  0.78965279     1.08100
H250        H  0.68116726  0.74076527  0.79343772     0.39900
O251        O  0.69486029  0.77382345  0.79308225    -1.08400
O252        O  0.74600714  0.85507232  0.78522445    -0.65000
Ni253      Ni  0.70786064  0.78990427  0.78369377     1.26300
O254        O  0.59983857  0.72504463  0.79359557    -0.65300
O255        O  0.76212371  0.78297211  0.78343618    -0.77600
C256        C  0.68546347  0.77412599  0.77009052     0.85900
O257        O  0.71524752  0.80282042  0.77419854    -0.64700
Ni258      Ni  0.74519529  0.80000378  0.79927666     1.27400
Ni259      Ni  0.64711236  0.78952743  0.79385477     1.26100
H260        H  0.66536534  0.83038790  0.78321980     0.40400
O261        O  0.20570126  0.82663583  0.85973068    -0.79500
O262        O  0.15892568  0.77068152  0.88944271    -0.64200
O263        O  0.14493261  0.78268045  0.87027098    -1.10800
C264        C  0.16092734  0.92659526  0.87608550     1.07400
O265        O  0.11034476  0.79491539  0.89212102    -0.77400
O266        O  0.07091726  0.81553737  0.88160928    -0.65000
Ni267      Ni  0.17668790  0.76650442  0.86376619     1.34900
C268        C  0.06272603  0.81522219  0.87522614     0.86100
O269        O  0.14294015  0.71397579  0.87884844    -0.78000
O270        O  0.14956200  0.70553468  0.86751364    -0.88200
C271        C  0.12968354  0.77129066  0.89351628     0.85700
O272        O  0.23213909  0.78451465  0.86872871    -0.66400
O273        O  0.14145945  0.90574859  0.88169251    -0.85700
C274        C  0.24661530  0.79995552  0.87471446     0.86500
C275        C  0.14102759  0.68966197  0.87364949     1.08100
H276        H  0.19630977  0.85853797  0.88158957     0.39900
O277        O  0.16462344  0.83795808  0.88029895    -1.08400
O278        O  0.09386469  0.82708134  0.87063520    -0.65000
Ni279      Ni  0.15897982  0.84557536  0.87062195     1.26300
O280        O  0.22015442  0.80100782  0.87932768    -0.65300
O281        O  0.17384119  0.90862311  0.87143549    -0.77600
C282        C  0.18142815  0.84155646  0.85698169     0.85900
O283        O  0.15563209  0.84996360  0.86076909    -0.64700
Ni284      Ni  0.12746385  0.84926189  0.88649901     1.27400
Ni285      Ni  0.15389219  0.77615602  0.87976396     1.26100
H286        H  0.11246225  0.76342025  0.86931929     0.40400
O287        O  0.24614937  0.84562837  0.77101665    -0.79500
O288        O  0.19147952  0.78978950  0.80223058    -0.64200
O289        O  0.18864037  0.80201109  0.78255901    -1.10800
C290        C  0.21355854  0.95143920  0.78882205     1.07400
O291        O  0.14265701  0.81441398  0.80193917    -0.77400
O292        O  0.12232597  0.86304050  0.79318006    -0.65000
Ni293      Ni  0.22522841  0.78961956  0.77646844     1.34900
C294        C  0.10874609  0.84500378  0.78730769     0.86100
O295        O  0.17571785  0.73090167  0.79149008    -0.78000
O296        O  0.20644202  0.73165686  0.78113763    -0.88200
C297        C  0.16597122  0.80163120  0.80545401     0.85700
O298        O  0.28071820  0.81960173  0.78169401    -0.66400
O299        O  0.20654753  0.93728541  0.79505834    -0.85700
C300        C  0.28783184  0.82143573  0.78813965     0.86500
C301        C  0.18622653  0.71135432  0.78674378     1.08100
H302        H  0.23982686  0.87675259  0.79351129     0.39900
O303        O  0.20748914  0.85799900  0.79244639    -1.08400
O304        O  0.13426328  0.83876445  0.78315788    -0.65000
Ni305      Ni  0.20005464  0.86377822  0.78295088     1.26300
O306        O  0.25624539  0.81165362  0.79259074    -0.65300
O307        O  0.21057484  0.92595078  0.78371002    -0.77600
C308        C  0.22606932  0.86831081  0.76942586     0.85900
O309        O  0.19561093  0.86790339  0.77331000    -0.64700
Ni310      Ni  0.17507704  0.87569276  0.79855589     1.27400
Ni311      Ni  0.19164567  0.79427614  0.79226608     1.26100
H312        H  0.15709947  0.78175787  0.78116545     0.40400
O313        O  0.51342913  0.48659605  0.52848779    -0.79500
O314        O  0.47798515  0.44061158  0.55879563    -0.64200
O315        O  0.45684172  0.44527255  0.53964309    -1.10800
C316        C  0.47576910  0.59102040  0.54533597     1.07400
O317        O  0.42552283  0.45961540  0.56143821    -0.77400
O318        O  0.38539442  0.48398045  0.55118979    -0.65000
Ni319      Ni  0.48769210  0.42835782  0.53306560     1.34900
C320        C  0.37521473  0.47998461  0.54482323     0.86100
O321        O  0.46155472  0.38140042  0.54862225    -0.78000
O322        O  0.46504770  0.36932786  0.53732688    -0.88200
C323        C  0.44831085  0.43948323  0.56295526     0.85700
O324        O  0.54514504  0.45089691  0.53761394    -0.66400
O325        O  0.45933851  0.57188835  0.55117352    -0.85700
C326        C  0.56079218  0.46851739  0.54345456     0.86500
C327        C  0.46085853  0.35650374  0.54360768     1.08100
H328        H  0.50992700  0.52438873  0.55040185     0.39900
O329        O  0.47801126  0.50285114  0.54936855    -1.08400
O330        O  0.40464964  0.48818467  0.54009174    -0.65000
Ni331      Ni  0.46966233  0.50787163  0.53971674     1.26300
O332        O  0.53512755  0.46918684  0.54821533    -0.65300
O333        O  0.48363128  0.57076189  0.54038479    -0.77600
C334        C  0.48844447  0.50110692  0.52588678     0.85900
O335        O  0.46343552  0.50987258  0.52981612    -0.64700
Ni336      Ni  0.44322058  0.51480645  0.55588884     1.27400
Ni337      Ni  0.46920533  0.44218253  0.54913934     1.26100
H338        H  0.42419524  0.42513950  0.53893070     0.40400
O339        O  0.55380043  0.53241191  0.43826992    -0.79500
O340        O  0.51226952  0.48595989  0.47005270    -0.64200
O341        O  0.50162246  0.49276454  0.45039672    -1.10800
C342        C  0.53160910  0.64525968  0.45572482     1.07400
O343        O  0.46772439  0.51594513  0.47073561    -0.77400
O344        O  0.44399454  0.55960073  0.46168130    -0.65000
Ni345      Ni  0.53703311  0.47917626  0.44422033     1.34900
C346        C  0.42563638  0.53839758  0.45614472     0.86100
O347        O  0.49002473  0.42379140  0.45958305    -0.78000
O348        O  0.52243358  0.42365237  0.44940918    -0.88200
C349        C  0.48939036  0.49896374  0.47372521     0.85700
O350        O  0.59432638  0.51352033  0.44892864    -0.66400
O351        O  0.52991754  0.63418277  0.46205955    -0.85700
C352        C  0.60252749  0.51302009  0.45529773     0.86500
C353        C  0.50204292  0.40412586  0.45505588     1.08100
H354        H  0.55933147  0.57023120  0.46051643     0.39900
O355        O  0.52635646  0.55219343  0.45991892    -1.08400
O356        O  0.44833924  0.53073046  0.45162217    -0.65000
Ni357      Ni  0.51360795  0.55475076  0.45048001     1.26300
O358        O  0.57192194  0.50245428  0.45992837    -0.65300
O359        O  0.52461050  0.61723514  0.45079864    -0.77600
C360        C  0.53355353  0.55520982  0.43683634     0.85900
O361        O  0.50403980  0.55517250  0.44089798    -0.64700
Ni362      Ni  0.49985567  0.57463964  0.46633587     1.27400
Ni363      Ni  0.50823190  0.48790759  0.46009133     1.26100
H364        H  0.46969563  0.47224601  0.44923068     0.40400
O365        O  0.50757987  0.03537491  0.52924401    -0.79500
O366        O  0.55950487  0.04695954  0.55928773    -0.64200
O367        O  0.54832212  0.01784441  0.54027127    -1.10800
C368        C  0.39986731  0.89788088  0.54673136     1.07400
O369        O  0.53385135  0.97445598  0.56227203    -0.77400
O370        O  0.50448133  0.90898090  0.55240093    -0.65000
Ni371      Ni  0.56736222  0.06474835  0.53347549     1.34900
C372        C  0.50833832  0.90208162  0.54607472     0.86100
O373        O  0.61733946  0.08472073  0.54875282    -0.78000
O374        O  0.62827840  0.09744879  0.53733808    -0.88200
C375        C  0.55807640  0.01745371  0.56352645     0.85700
O376        O  0.55189621  0.10523456  0.53811333    -0.66400
O377        O  0.41910222  0.90086563  0.55255204    -0.85700
C378        C  0.53752726  0.10627637  0.54411145     0.86500
C379        C  0.64220745  0.10665620  0.54356644     1.08100
H380        H  0.47302094  0.99939612  0.55131777     0.39900
O381        O  0.49225552  0.98635802  0.55029240    -1.08400
O382        O  0.50101638  0.92343719  0.54123597    -0.65000
Ni383      Ni  0.48454814  0.97114054  0.54071734     1.26300
O384        O  0.53310128  0.07800813  0.54882574    -0.65300
O385        O  0.42077264  0.92486691  0.54167604    -0.77600
C386        C  0.48931559  0.99489147  0.52683577     0.85900
O387        O  0.47984586  0.96135392  0.53088510    -0.64700
Ni388      Ni  0.47744542  0.93970888  0.55700369     1.27400
Ni389      Ni  0.55482796  0.03482853  0.54968820     1.26100
H390        H  0.56664464  0.00293251  0.53951246     0.40400
O391        O  0.45224603  0.02734134  0.43944181    -0.79500
O392        O  0.50063975  0.03098097  0.47109359    -0.64200
O393        O  0.49433484  0.01447772  0.45137499    -1.10800
C394        C  0.34514949  0.88680321  0.45666666     1.07400
O395        O  0.47526622  0.95709047  0.47161415    -0.77400
O396        O  0.43589521  0.89071268  0.46246646    -0.65000
Ni397      Ni  0.50773697  0.06256655  0.44503160     1.34900
C398        C  0.45511777  0.89396005  0.45672237     0.86100
O399        O  0.56228306  0.07457907  0.46060957    -0.78000
O400        O  0.56488514  0.10161595  0.44987404    -0.88200
C401        C  0.48939697  0.99494004  0.47468896     0.85700
O402        O  0.47761036  0.08944044  0.44985478    -0.66400
O403        O  0.35691398  0.89436519  0.46299959    -0.85700
C404        C  0.47279866  0.09446793  0.45622066     0.86500
C405        C  0.58343026  0.10342108  0.45573966     1.08100
H406        H  0.41608671  0.98988403  0.46167468     0.39900
O407        O  0.43573757  0.97681201  0.46092687    -1.08400
O408        O  0.45915909  0.92308099  0.45215449    -0.65000
Ni409      Ni  0.43314929  0.96318751  0.45140015     1.26300
O410        O  0.48017897  0.07227360  0.46093843    -0.65300
O411        O  0.37173808  0.91069924  0.45174686    -0.77600
C412        C  0.43025879  0.98467963  0.43780512     0.85900
O413        O  0.43174265  0.95494118  0.44169023    -0.64700
Ni414      Ni  0.41645903  0.92735379  0.46725063     1.27400
Ni415      Ni  0.49895699  0.02590003  0.46109365     1.26100
H416        H  0.51550875  0.00374120  0.45029041     0.40400
O417        O  0.95652806  0.49047859  0.52834852    -0.79500
O418        O  0.95013258  0.51182360  0.55934901    -0.64200
O419        O  0.97353049  0.54043886  0.54032452    -1.10800
C420        C  0.10007444  0.51707101  0.54462888     1.07400
O421        O  0.02228694  0.56294182  0.56182189    -0.77400
O422        O  0.08656573  0.60437148  0.55190991    -0.65000
Ni423      Ni  0.92536897  0.51441163  0.53372393     1.34900
C424        C  0.09049123  0.61819335  0.54573023     0.86100
O425        O  0.90653797  0.53271553  0.54985540    -0.78000
O426        O  0.89071732  0.53635737  0.53868293    -0.88200
C427        C  0.97954531  0.54189390  0.56338116     0.85700
O428        O  0.88991256  0.45474876  0.53769211    -0.66400
O429        O  0.09693869  0.52876058  0.55079802    -0.85700
C430        C  0.89203673  0.43567116  0.54322348     0.86500
C431        C  0.88321571  0.53781532  0.54508924     1.08100
H432        H  0.99948761  0.48169683  0.54995406     0.39900
O433        O  0.01031179  0.51414582  0.54934766    -1.08400
O434        O  0.06790115  0.59194860  0.54075078    -0.65000
Ni435      Ni  0.02308338  0.52740091  0.53976315     1.26300
O436        O  0.91885807  0.45846403  0.54815959    -0.65300
O437        O  0.07250845  0.51348878  0.53976922    -0.77600
C438        C  0.99658489  0.51562078  0.52592571     0.85900
O439        O  0.03045407  0.53853226  0.52995618    -0.64700
Ni440      Ni  0.05764197  0.54471613  0.55597521     1.27400
Ni441      Ni  0.95892955  0.52381653  0.54973315     1.26100
H442        H  0.98635772  0.57346136  0.54002409     0.40400
O443        O  0.95790501  0.43005853  0.43883784    -0.79500
O444        O  0.95934686  0.47561448  0.47051799    -0.64200
O445        O  0.97239773  0.48411674  0.45079389    -1.10800
C446        C  0.09805808  0.45835816  0.45571281     1.07400
O447        O  0.03407138  0.52215065  0.47097584    -0.77400
O448        O  0.09974819  0.54532383  0.46147991    -0.65000
Ni449      Ni  0.92314554  0.44922548  0.44467331     1.34900
C450        C  0.09576779  0.56204530  0.45582189     0.86100
O451        O  0.91431704  0.49341565  0.46026254    -0.78000
O452        O  0.88419850  0.46595570  0.44977905    -0.88200
C453        C  0.99548208  0.50152059  0.47401582     0.85700
O454        O  0.89848605  0.39240468  0.44952895    -0.66400
O455        O  0.08953726  0.46009340  0.46207738    -0.85700
C456        C  0.89349042  0.38283309  0.45591245     0.86500
C457        C  0.88361366  0.48348491  0.45560676     1.08100
H458        H  0.99641744  0.42916295  0.46088428     0.39900
O459        O  0.01026062  0.46199557  0.46018714    -1.08400
O460        O  0.06397074  0.53882396  0.45150808    -0.65000
Ni461      Ni  0.02320144  0.47337928  0.45064755     1.26300
O462        O  0.91521955  0.41283029  0.46057665    -0.65300
O463        O  0.07546830  0.46376243  0.45083186    -0.77600
C464        C  0.00025514  0.45152424  0.43704715     0.85900
O465        O  0.03097806  0.48155933  0.44092479    -0.64700
Ni466      Ni  0.06028183  0.49005288  0.46642175     1.27400
Ni467      Ni  0.96245461  0.47776344  0.46053861     1.26100
H468        H  0.98330198  0.51605410  0.44965572     0.40400
O469        O  0.13732747  0.30251788  0.30239880    -0.79500
O470        O  0.16589345  0.30067942  0.27279428    -0.64200
O471        O  0.19495454  0.32413680  0.29169582    -1.10800
C472        C  0.17387718  0.45096461  0.28754619     1.07400
O473        O  0.21869950  0.37223487  0.27020468    -0.77400
O474        O  0.26257669  0.43350313  0.28068184    -0.65000
Ni475      Ni  0.16798389  0.27485569  0.29802785     1.34900
C476        C  0.27348705  0.44083639  0.28701292     0.86100
O477        O  0.18544733  0.25549651  0.28239480    -0.78000
O478        O  0.19666951  0.24514973  0.29354103    -0.88200
C479        C  0.19545837  0.32943381  0.26864171     0.85700
O480        O  0.11146462  0.23468157  0.29350668    -0.66400
O481        O  0.19060506  0.45025302  0.28163625    -0.85700
C482        C  0.09169895  0.23977575  0.28829164     0.86500
C483        C  0.19363801  0.23423221  0.28719397     1.08100
H484        H  0.13817578  0.35187359  0.28177767     0.39900
O485        O  0.17018374  0.36174565  0.28265563    -1.08400
O486        O  0.24469344  0.41987980  0.29186330    -0.65000
Ni487      Ni  0.17999819  0.37244858  0.29234081     1.26300
O488        O  0.11326504  0.27157623  0.28390192    -0.65300
O489        O  0.16454427  0.42052935  0.29223718    -0.77600
C490        C  0.16105351  0.33904788  0.30575650     0.85900
O491        O  0.18580260  0.37612164  0.30236228    -0.64700
Ni492      Ni  0.20400739  0.40960771  0.27629351     1.27400
Ni493      Ni  0.17860356  0.30963932  0.28234473     1.26100
H494        H  0.22794869  0.33753361  0.29205830     0.40400
O495        O  0.07707007  0.30498943  0.39300718    -0.79500
O496        O  0.11798381  0.28991296  0.36170255    -0.64200
O497        O  0.13085974  0.31441776  0.38113858    -1.10800
C498        C  0.10988758  0.44036601  0.37454983     1.07400
O499        O  0.16641677  0.36350909  0.35982161    -0.77400
O500        O  0.19703922  0.43191843  0.36891545    -0.65000
Ni501      Ni  0.09638646  0.26809117  0.38775889     1.34900
C502        C  0.21162173  0.43154017  0.37492910     0.86100
O503        O  0.13826148  0.25145667  0.37251731    -0.78000
O504        O  0.11343111  0.22723023  0.38330911    -0.88200
C505        C  0.14344742  0.32255480  0.35761866     0.85700
O506        O  0.03886343  0.24021081  0.38304169    -0.66400
O507        O  0.11619722  0.43222677  0.36834429    -0.85700
C508        C  0.02908755  0.23276900  0.37669092     0.86500
C509        C  0.13014915  0.22377468  0.37756105     1.08100
H510        H  0.07657120  0.33525455  0.37026325     0.39900
O511        O  0.10922802  0.34850921  0.37107112    -1.08400
O512        O  0.18591791  0.40551415  0.37972410    -0.65000
Ni513      Ni  0.12019589  0.36509842  0.38055553     1.26300
O514        O  0.05848223  0.25326674  0.37191678    -0.65300
O515        O  0.11024349  0.41655136  0.37966588    -0.77600
C516        C  0.09824896  0.34797033  0.39438345     0.85900
O517        O  0.12777785  0.37701496  0.39023924    -0.64700
Ni518      Ni  0.13978466  0.39574178  0.36432626     1.27400
Ni519      Ni  0.12326789  0.29960320  0.37153309     1.26100
H520        H  0.16287233  0.32573927  0.38224700     0.40400
O521        O  0.14006326  0.86233273  0.30543926    -0.79500
O522        O  0.09522768  0.82672402  0.27519840    -0.64200
O523        O  0.10154640  0.80615970  0.29428599    -1.10800
C524        C  0.25261407  0.83625765  0.28871320     1.07400
O525        O  0.12281937  0.78128079  0.27239639    -0.77400
O526        O  0.15319470  0.74555034  0.28220471    -0.65000
Ni527      Ni  0.08153103  0.83393930  0.30091897     1.34900
C528        C  0.14501916  0.73194101  0.28841575     0.86100
O529        O  0.03514449  0.80564729  0.28537672    -0.78000
O530        O  0.02190208  0.80790003  0.29669584    -0.88200
C531        C  0.09762251  0.79891348  0.27104401     0.85700
O532        O  0.10027853  0.89129048  0.29644408    -0.66400
O533        O  0.23617687  0.82455750  0.28262894    -0.85700
C534        C  0.11658257  0.90742162  0.29054462     0.86500
C535        C  0.00950378  0.80343060  0.29039424     1.08100
H536        H  0.17997310  0.86521030  0.28389225     0.39900
O537        O  0.16053929  0.83251094  0.28466577    -1.08400
O538        O  0.14797718  0.75795274  0.29341176    -0.65000
Ni539      Ni  0.16526756  0.82225455  0.29425661     1.26300
O540        O  0.11936462  0.88294473  0.28579820    -0.65300
O541        O  0.22943113  0.83882737  0.29376243    -0.77600
C542        C  0.15643371  0.83883987  0.30802862     0.85900
O543        O  0.16639143  0.81462972  0.30411135    -0.64700
Ni544      Ni  0.17858516  0.80413509  0.27789041     1.27400
Ni545      Ni  0.09768931  0.81818938  0.28483855     1.26100
H546        H  0.08281962  0.77327293  0.29495845     0.40400
O547        O  0.18351239  0.89301191  0.39588684    -0.79500
O548        O  0.14027925  0.85916131  0.36382932    -0.64200
O549        O  0.14485176  0.84322535  0.38344214    -1.10800
C550        C  0.29767971  0.87473388  0.37804718     1.07400
O551        O  0.16939818  0.81385491  0.36302632    -0.77400
O552        O  0.21308398  0.78814225  0.37179024    -0.65000
Ni553      Ni  0.12962213  0.87541504  0.38997996     1.34900
C554        C  0.19165371  0.76883296  0.37728428     0.86100
O555        O  0.07682990  0.83588575  0.37418379    -0.78000
O556        O  0.07385434  0.86031892  0.38487885    -0.88200
C557        C  0.15384205  0.83697432  0.36009284     0.85700
O558        O  0.16154711  0.93393768  0.38555811    -0.66400
O559        O  0.28758696  0.87437262  0.37169627    -0.85700
C560        C  0.16518374  0.94534669  0.37924671     0.86500
C561        C  0.05589357  0.84454677  0.37895647     1.08100
H562        H  0.22335084  0.90292578  0.37352500     0.39900
O563        O  0.20497510  0.86982686  0.37398441    -1.08400
O564        O  0.18336693  0.79036835  0.38193937    -0.65000
Ni565      Ni  0.20704664  0.85554807  0.38334869     1.26300
O566        O  0.15719334  0.91693110  0.37436120    -0.65300
O567        O  0.26927339  0.86689810  0.38294094    -0.77600
C568        C  0.20798993  0.87420610  0.39710580     0.85900
O569        O  0.20813710  0.84518376  0.39294779    -0.64700
Ni570      Ni  0.22805702  0.84491471  0.36739753     1.27400
Ni571      Ni  0.14089744  0.85273915  0.37377725     1.26100
H572        H  0.12445798  0.81087016  0.38436464     0.40400
O573        O  0.69615717  0.86155900  0.30498509    -0.79500
O574        O  0.70761303  0.90927255  0.27500841    -0.64200
O575        O  0.67630134  0.90027428  0.29389930    -1.10800
C576        C  0.55464695  0.75403177  0.28769306     1.07400
O577        O  0.63598325  0.88777889  0.27194823    -0.77400
O578        O  0.57319723  0.86563128  0.28231318    -0.65000
Ni579      Ni  0.72314226  0.92105918  0.30071411     1.34900
C580        C  0.56287738  0.86365589  0.28864445     0.86100
O581        O  0.74517766  0.96778524  0.28542618    -0.78000
O582        O  0.75384216  0.98173362  0.29676725    -0.88200
C583        C  0.67930153  0.90966163  0.27070608     0.85700
O584        O  0.76513781  0.90701415  0.29625483    -0.66400
O585        O  0.55572273  0.77591059  0.28219880    -0.85700
C586        C  0.76377763  0.88709039  0.29065530     0.86500
C587        C  0.76487717  0.99450889  0.29052537     1.08100
H588        H  0.65641196  0.82398199  0.28269119     0.39900
O589        O  0.64470701  0.84416690  0.28391098    -1.08400
O590        O  0.58136440  0.85116611  0.29327997    -0.65000
Ni591      Ni  0.63035092  0.83623446  0.29348223     1.26300
O592        O  0.73530130  0.88134101  0.28588578    -0.65300
O593        O  0.58466558  0.77236392  0.29248332    -0.77600
C594        C  0.65521484  0.84003937  0.30723128     0.85900
O595        O  0.62155028  0.83077504  0.30325327    -0.64700
Ni596      Ni  0.59767905  0.83294195  0.27749630     1.27400
Ni597      Ni  0.69443058  0.90579024  0.28455395     1.26100
H598        H  0.66108228  0.91810631  0.29448432     0.40400
O599        O  0.67361942  0.79032464  0.39366301    -0.79500
O600        O  0.68108436  0.83979141  0.36245119    -0.64200
O601        O  0.65970558  0.83170846  0.38190233    -1.10800
C602        C  0.53462463  0.68207968  0.37609474     1.07400
O603        O  0.60739829  0.81425651  0.36151483    -0.77400
O604        O  0.53935130  0.77537972  0.37035552    -0.65000
Ni605      Ni  0.70703757  0.84708962  0.38844527     1.34900
C606        C  0.54166699  0.79331602  0.37617707     0.86100
O607        O  0.72063275  0.90125232  0.37291104    -0.78000
O608        O  0.74398087  0.90550001  0.38389895    -0.88200
C609        C  0.64585521  0.82752326  0.35868024     0.85700
O610        O  0.73952043  0.82199689  0.38377948    -0.66400
O611        O  0.54175611  0.69528622  0.36982180    -0.85700
C612        C  0.74475832  0.81677380  0.37744129     0.86500
C613        C  0.74721217  0.92341475  0.37794654     1.08100
H614        H  0.63838652  0.75465363  0.37144656     0.39900
O615        O  0.62471857  0.77376463  0.37221781    -1.08400
O616        O  0.56855663  0.79440595  0.38090237    -0.65000
Ni617      Ni  0.60968227  0.76971223  0.38169264     1.26300
O618        O  0.72056417  0.82053750  0.37268281    -0.65300
O619        O  0.55819916  0.70759546  0.38112811    -0.77600
C620        C  0.63110887  0.76769444  0.39531223     0.85900
O621        O  0.60052356  0.76716083  0.39138006    -0.64700
Ni622      Ni  0.57605420  0.75521782  0.36573306     1.27400
Ni623      Ni  0.67311695  0.83748745  0.37229357     1.26100
H624        H  0.64770685  0.85197138  0.38288708     0.40400
O625        O  0.84067649  0.71928091  0.19550340    -0.79500
O626        O  0.89430663  0.72548671  0.22455359    -0.64200
O627        O  0.88362988  0.70008765  0.20548451    -1.10800
C628        C  0.73512047  0.57769639  0.21165685     1.07400
O629        O  0.87107163  0.65253010  0.22699854    -0.77400
O630        O  0.83891722  0.58667738  0.21694951    -0.65000
Ni631      Ni  0.90161346  0.74873178  0.19903374     1.34900
C632        C  0.84113932  0.58023203  0.21055075     0.86100
O633        O  0.95213171  0.76689810  0.21401872    -0.78000
O634        O  0.96308676  0.78039227  0.20260824    -0.88200
C635        C  0.89425506  0.69534609  0.22852249     0.85700
O636        O  0.88706699  0.78888148  0.20394507    -0.66400
O637        O  0.75435188  0.57988238  0.21747280    -0.85700
C638        C  0.86940250  0.78642540  0.20979737     0.86500
C639        C  0.97724683  0.78884186  0.20883150     1.08100
H640        H  0.80779693  0.67789595  0.21661444     0.39900
O641        O  0.82761133  0.66569614  0.21542773    -1.08400
O642        O  0.83545474  0.60404374  0.20590911    -0.65000
Ni643      Ni  0.81961739  0.65251846  0.20581939     1.26300
O644        O  0.86573869  0.75729907  0.21433110    -0.65300
O645        O  0.75582819  0.60573956  0.20669177    -0.77600
C646        C  0.82646305  0.68159957  0.19239972     0.85900
O647        O  0.81493353  0.64551908  0.19594893    -0.64700
Ni648      Ni  0.81354009  0.61802085  0.22187800     1.27400
Ni649      Ni  0.88981615  0.71558114  0.21491468     1.26100
H650        H  0.90213364  0.68590236  0.20458004     0.40400
O651        O  0.78253607  0.69523997  0.10607505    -0.79500
O652        O  0.84174479  0.71074394  0.13694388    -0.64200
O653        O  0.82960931  0.68766764  0.11765863    -1.10800
C654        C  0.68681294  0.55663026  0.12437145     1.07400
O655        O  0.81999264  0.63790440  0.13863188    -0.77400
O656        O  0.78164732  0.56880236  0.12971523    -0.65000
Ni657      Ni  0.83856991  0.73402179  0.11120637     1.34900
C658        C  0.79788784  0.57040036  0.12377032     0.86100
O659        O  0.89882022  0.75106607  0.12621657    -0.78000
O660        O  0.89612472  0.77666290  0.11560310    -0.88200
C661        C  0.83522957  0.67817680  0.14095952     0.85700
O662        O  0.80693061  0.75903096  0.11609931    -0.66400
O663        O  0.69995469  0.56634073  0.13062066    -0.85700
C664        C  0.80504174  0.76571308  0.12248298     0.86500
C665        C  0.91712969  0.77970673  0.12126449     1.08100
H666        H  0.75429951  0.66308324  0.12859213     0.39900
O667        O  0.77492396  0.65093087  0.12775793    -1.08400
O668        O  0.79824934  0.59707315  0.11905668    -0.65000
Ni669      Ni  0.76977577  0.63487618  0.11832052     1.26300
O670        O  0.81594716  0.74592249  0.12711746    -0.65300
O671        O  0.71034518  0.58083161  0.11924774    -0.77600
C672        C  0.76234964  0.65230609  0.10470072     0.85900
O673        O  0.76566064  0.62412493  0.10870273    -0.64700
Ni674      Ni  0.76033261  0.60403773  0.13445950     1.27400
Ni675      Ni  0.83690007  0.70153032  0.12722682     1.26100
H676        H  0.85140642  0.67800214  0.11644290     0.40400
O677        O  0.29364622  0.16744077  0.19292177    -0.79500
O678        O  0.27595644  0.19241094  0.22337283    -0.64200
O679        O  0.30733558  0.21957721  0.20443751    -1.10800
C680        C  0.42966708  0.19418559  0.21065418     1.07400
O681        O  0.34706495  0.24328616  0.22646356    -0.77400
O682        O  0.41407051  0.28538461  0.21673364    -0.65000
Ni683      Ni  0.26081754  0.19227099  0.19753769     1.34900
C684        C  0.42291069  0.29698285  0.21044699     0.86100
O685        O  0.23680690  0.21322323  0.21312425    -0.78000
O686        O  0.22413677  0.21467026  0.20178796    -0.88200
C687        C  0.30386986  0.22084400  0.22773245     0.85700
O688        O  0.22420918  0.13297076  0.20157651    -0.66400
O689        O  0.42641788  0.21036945  0.21646125    -0.85700
C690        C  0.22515699  0.11489535  0.20727440     0.86500
C691        C  0.21455705  0.21709845  0.20806987     1.08100
H692        H  0.32882800  0.16169219  0.21509305     0.39900
O693        O  0.33998182  0.19399115  0.21421273    -1.08400
O694        O  0.40288444  0.26899403  0.20550620    -0.65000
Ni695      Ni  0.35596540  0.20466821  0.20467721     1.26300
O696        O  0.24997933  0.13872574  0.21229796    -0.65300
O697        O  0.40315699  0.18837961  0.20553889    -0.77600
C698        C  0.33407704  0.19235048  0.19066200     0.85900
O699        O  0.36725785  0.21338458  0.19486704    -0.64700
Ni700      Ni  0.38515374  0.22623144  0.22105070     1.27400
Ni701      Ni  0.28901017  0.20412841  0.21379661     1.26100
H702        H  0.32097442  0.25257824  0.20396550     0.40400
O703        O  0.30382289  0.10301379  0.10383129    -0.79500
O704        O  0.29572042  0.14445462  0.13544752    -0.64200
O705        O  0.31406395  0.15474521  0.11586884    -1.10800
C706        C  0.43525672  0.12405221  0.12168380     1.07400
O707        O  0.37083892  0.18848229  0.13641442    -0.77400
O708        O  0.43876867  0.20966490  0.12751915    -0.65000
Ni709      Ni  0.26632137  0.11905409  0.10956164     1.34900
C710        C  0.43633868  0.22919134  0.12206275     0.86100
O711        O  0.25453647  0.16457184  0.12482230    -0.78000
O712        O  0.22478677  0.13305912  0.11450223    -0.88200
C713        C  0.33122966  0.16895904  0.13913649     0.85700
O714        O  0.24321329  0.06197145  0.11435177    -0.66400
O715        O  0.42360849  0.12260481  0.12797300    -0.85700
C716        C  0.23355787  0.05374516  0.12070111     0.86500
C717        C  0.22350337  0.15213638  0.12013992     1.08100
H718        H  0.33268736  0.09669187  0.12603450     0.39900
O719        O  0.34780943  0.12978354  0.12552931    -1.08400
O720        O  0.40506340  0.20845178  0.11756307    -0.65000
Ni721      Ni  0.36427568  0.14336384  0.11616572     1.26300
O722        O  0.25317560  0.08414016  0.12535211    -0.65300
O723        O  0.41581232  0.13293286  0.11671548    -0.77600
C724        C  0.34680382  0.12500780  0.10241929     0.85900
O725        O  0.37569526  0.15400325  0.10660710    -0.64700
Ni726      Ni  0.39571725  0.15447516  0.13212528     1.27400
Ni727      Ni  0.30166861  0.14777534  0.12552223     1.26100
H728        H  0.32529837  0.18665419  0.11468781     0.40400
O729        O  0.83546042  0.14681827  0.19520425    -0.79500
O730        O  0.81724011  0.12943734  0.22569767    -0.64200
O731        O  0.78334719  0.11816960  0.20688124    -1.10800
C732        C  0.80392594  0.26628797  0.20990046     1.07400
O733        O  0.76538172  0.14926854  0.22838380    -0.77400
O734        O  0.71786022  0.15924211  0.21764762    -0.65000
Ni735      Ni  0.80702973  0.09194023  0.20061520     1.34900
C736        C  0.70726938  0.15765448  0.21133612     0.86100
O737        O  0.79517307  0.06210711  0.21669982    -0.78000
O738        O  0.78073184  0.03587554  0.20583884    -0.88200
C739        C  0.78854221  0.12946636  0.22993090     0.85700
O740        O  0.86596525  0.11215113  0.20469275    -0.66400
O741        O  0.78646369  0.24950854  0.21583084    -0.85700
C742        C  0.88719478  0.13936585  0.20962346     0.86500
C743        C  0.78588105  0.03080969  0.21222732     1.08100
H744        H  0.84273146  0.20558232  0.21629934     0.39900
O745        O  0.81068921  0.18325645  0.21552083    -1.08400
O746        O  0.73582292  0.16619362  0.20646344    -0.65000
Ni747      Ni  0.79949108  0.18163025  0.20583327     1.26300
O748        O  0.86649636  0.14917029  0.21420740    -0.65300
O749        O  0.81564130  0.24533383  0.20554087    -0.77600
C750        C  0.81261414  0.16250958  0.19221700     0.85900
O751        O  0.79102668  0.17719189  0.19587620    -0.64700
Ni752      Ni  0.77667531  0.19816887  0.22173228     1.27400
Ni753      Ni  0.80195820  0.12277797  0.21621838     1.26100
H754        H  0.75020699  0.09921700  0.20675383     0.40400
O755        O  0.88769516  0.20347099  0.10419566    -0.79500
O756        O  0.85822683  0.16228719  0.13617617    -0.64200
O757        O  0.83850503  0.16463136  0.11666235    -1.10800
C758        C  0.86535068  0.31542946  0.12165481     1.07400
O759        O  0.81116258  0.18949089  0.13734589    -0.77400
O760        O  0.78066076  0.22712744  0.12839820    -0.65000
Ni761      Ni  0.86755726  0.14796501  0.10984486     1.34900
C762        C  0.76203225  0.20601714  0.12286664     0.86100
O763        O  0.83266441  0.09794534  0.12586110    -0.78000
O764        O  0.84830880  0.09081473  0.11477440    -0.88200
C765        C  0.83393442  0.17267749  0.14003268     0.85700
O766        O  0.92694641  0.17482875  0.11403229    -0.66400
O767        O  0.86464429  0.30552312  0.12801944    -0.85700
C768        C  0.93995928  0.18093575  0.12028231     0.86500
C769        C  0.83465766  0.07422278  0.12084096     1.08100
H770        H  0.89884249  0.24461036  0.12635791     0.39900
O771        O  0.86580742  0.22554623  0.12595803    -1.08400
O772        O  0.78501127  0.20119109  0.11808857    -0.65000
Ni773      Ni  0.84984763  0.22604081  0.11658417     1.26300
O774        O  0.91388772  0.17786967  0.12529018    -0.65300
O775        O  0.85953299  0.28760560  0.11678073    -0.77600
C776        C  0.86689723  0.22597607  0.10288414     0.85900
O777        O  0.83731136  0.22468998  0.10705299    -0.64700
Ni778      Ni  0.83918098  0.24696808  0.13256268     1.27400
Ni779      Ni  0.84994234  0.16196725  0.12623833     1.26100
H780        H  0.80594321  0.14386702  0.11597612     0.40400
O781        O  0.53340511  0.56368550  0.06125593    -0.79500
O782        O  0.49008585  0.52295246  0.02925212    -0.64200
O783        O  0.49647019  0.51309054  0.04898200    -1.10800
C784        C  0.65049356  0.54682998  0.04366432     1.07400
O785        O  0.52088921  0.47892227  0.02880144    -0.77400
O786        O  0.56635968  0.45744820  0.03788928    -0.65000
Ni787      Ni  0.48257298  0.54881429  0.05501791     1.34900
C788        C  0.54528525  0.43886517  0.04343685     0.86100
O789        O  0.42743113  0.50161257  0.03967038    -0.78000
O790        O  0.42886995  0.53611504  0.04964316    -0.88200
C791        C  0.50381454  0.50012711  0.02570119     0.85700
O792        O  0.51969076  0.60566953  0.05034261    -0.66400
O793        O  0.63918369  0.54448406  0.03733322    -0.85700
C794        C  0.51907682  0.61439520  0.04399620     0.86500
C795        C  0.40851018  0.51509149  0.04411157     1.08100
H796        H  0.57400728  0.57130351  0.03886492     0.39900
O797        O  0.55619290  0.53828163  0.03948922    -1.08400
O798        O  0.53622715  0.46094549  0.04788987    -0.65000
Ni799      Ni  0.55899928  0.52612857  0.04895187     1.26300
O800        O  0.50651074  0.58365030  0.03934082    -0.65300
O801        O  0.62217338  0.53873764  0.04861203    -0.77600
C802        C  0.55599016  0.54353477  0.06280526     0.85900
O803        O  0.55965896  0.51674932  0.05858893    -0.64700
Ni804      Ni  0.57958945  0.51252228  0.03312096     1.27400
Ni805      Ni  0.49174474  0.51969465  0.03924290     1.26100
H806        H  0.47620272  0.48115722  0.05018416     0.40400
O807        O  0.48772594  0.51364885  0.97066301    -0.79500
O808        O  0.46010098  0.49214996  0.94012283    -0.64200
O809        O  0.45244023  0.46213745  0.95908458    -1.10800
C810        C  0.60178530  0.48289785  0.95484472     1.07400
O811        O  0.47757858  0.43811066  0.93788201    -0.77400
O812        O  0.50306066  0.39675696  0.94763316    -0.65000
Ni813      Ni  0.43169896  0.48985774  0.96555558     1.34900
C814        C  0.49139680  0.38163389  0.95373350     0.86100
O815        O  0.39544654  0.47363367  0.94951188    -0.78000
O816        O  0.37477568  0.46830705  0.96064370    -0.88200
C817        C  0.45822748  0.46123573  0.93616765     0.85700
O818        O  0.45564475  0.54937221  0.96150696    -0.66400
O819        O  0.58752168  0.47331936  0.94861440    -0.85700
C820        C  0.47784511  0.56807170  0.95603820     0.86500
C821        C  0.36671506  0.46860968  0.95421753     1.08100
H822        H  0.53806224  0.51887577  0.94971903     0.39900
O823        O  0.51559846  0.48656885  0.95022905    -1.08400
O824        O  0.49255311  0.40708078  0.95871205    -0.65000
Ni825      Ni  0.51429530  0.47258314  0.95977629     1.26300
O826        O  0.48335339  0.54516117  0.95129138    -0.65300
O827        O  0.57708483  0.48425535  0.95979607    -0.77600
C828        C  0.50096295  0.48810558  0.97347360     0.85900
O829        O  0.51028060  0.46271659  0.96968378    -0.64700
Ni830      Ni  0.53187117  0.45648364  0.94355021     1.27400
Ni831      Ni  0.45569251  0.47959516  0.94971485     1.26100
H832        H  0.43126426  0.42933117  0.95935235     0.40400
O833        O  0.02535392  0.46988307  0.06117000    -0.79500
O834        O  0.03986947  0.51306760  0.02905535    -0.64200
O835        O  0.01699528  0.50882083  0.04853717    -1.10800
C836        C  0.89290374  0.35874360  0.04288223     1.07400
O837        O  0.96629099  0.48851093  0.02780148    -0.77400
O838        O  0.89668362  0.45046149  0.03657763    -0.65000
Ni839      Ni  0.06368331  0.52227955  0.05517913     1.34900
C840        C  0.89872957  0.46991946  0.04226063     0.86100
O841        O  0.07989866  0.57520531  0.03935258    -0.78000
O842        O  0.10641259  0.57679479  0.05005663    -0.88200
C843        C  0.00544733  0.50233901  0.02514006     0.85700
O844        O  0.08796931  0.48756104  0.05099209    -0.66400
O845        O  0.90067759  0.37090331  0.03656974    -0.85700
C846        C  0.09646475  0.48401189  0.04472229     0.86500
C847        C  0.10953212  0.59511402  0.04413304     1.08100
H848        H  0.99554130  0.42947620  0.03847451     0.39900
O849        O  0.98232278  0.44939202  0.03899357    -1.08400
O850        O  0.92598377  0.47284489  0.04704858    -0.65000
Ni851      Ni  0.96601137  0.44739100  0.04837245     1.26300
O852        O  0.07732998  0.49324021  0.03974975    -0.65300
O853        O  0.91473511  0.38556882  0.04788148    -0.77600
C854        C  0.98203853  0.44779530  0.06237191     0.85900
O855        O  0.95377184  0.44668338  0.05793179    -0.64700
Ni856      Ni  0.93476447  0.43021921  0.03230431     1.27400
Ni857      Ni  0.03134547  0.51229047  0.03892186     1.26100
H858        H  0.00600936  0.53005311  0.04938181     0.40400
O859        O  0.05237447  0.52337140  0.97048608    -0.79500
O860        O  0.05582696  0.56643195  0.94008697    -0.64200
O861        O  0.03487449  0.56305885  0.95934473    -1.10800
C862        C  0.90697240  0.41594396  0.95388407     1.07400
O863        O  0.98388910  0.54920739  0.93815496    -0.77400
O864        O  0.91986843  0.52122939  0.94835570    -0.65000
Ni865      Ni  0.08383533  0.58121827  0.96574943     1.34900
C866        C  0.91642491  0.52735835  0.95472666     0.86100
O867        O  0.10256543  0.62548097  0.95008780    -0.78000
O868        O  0.11909862  0.64018230  0.96134611    -0.88200
C869        C  0.02614406  0.56895771  0.93632069     0.85700
O870        O  0.11860854  0.55913840  0.96101452    -0.66400
O871        O  0.90915936  0.43460871  0.94801723    -0.85700
C872        C  0.11581576  0.54122618  0.95516273     0.86500
C873        C  0.12749102  0.65111596  0.95499564     1.08100
H874        H  0.00590919  0.48324402  0.94868151     0.39900
O875        O  0.99593644  0.50502976  0.94976626    -1.08400
O876        O  0.93988739  0.52114564  0.95933734    -0.65000
Ni877      Ni  0.98451383  0.50049556  0.95942741     1.26300
O878        O  0.08712550  0.53788709  0.95056748    -0.65300
O879        O  0.93461915  0.43749975  0.95886730    -0.77600
C880        C  0.01294702  0.50818334  0.97316330     0.85900
O881        O  0.97853694  0.49887428  0.96932334    -0.64700
Ni882      Ni  0.94815411  0.49272172  0.94343345     1.27400
Ni883      Ni  0.04837507  0.56534777  0.94980065     1.26100
H884        H  0.02257880  0.58337216  0.96007414     0.40400
O885        O  0.43956102  0.97486323  0.06070329    -0.79500
O886        O  0.48107211  0.96503212  0.02956541    -0.64200
O887        O  0.49453664  0.98694157  0.04896280    -1.10800
C888        C  0.47007438  0.11185278  0.04313132     1.07400
O889        O  0.52719866  0.03938386  0.02794849    -0.77400
O890        O  0.55543902  0.10664153  0.03705036    -0.65000
Ni891      Ni  0.46239601  0.94029682  0.05560809     1.34900
C892        C  0.57221518  0.10576237  0.04286169     0.86100
O893        O  0.50258532  0.92577583  0.04016402    -0.78000
O894        O  0.48333420  0.90255697  0.05117191    -0.88200
C895        C  0.50541617  0.99880662  0.02558540     0.85700
O896        O  0.40487117  0.90786716  0.05090442    -0.66400
O897        O  0.47269994  0.10297300  0.03681051    -0.85700
C898        C  0.39416724  0.90248448  0.04456174     0.86500
C899        C  0.49796682  0.89917808  0.04522982     1.08100
H900        H  0.43779885  0.00709201  0.03856031     0.39900
O901        O  0.47068463  0.02113395  0.03920616    -1.08400
O902        O  0.54833601  0.07809896  0.04764024    -0.65000
Ni903      Ni  0.48294261  0.03692061  0.04865286     1.26300
O904        O  0.42223530  0.92620831  0.03980275    -0.65300
O905        O  0.47296982  0.08854931  0.04811958    -0.77600
C906        C  0.45978688  0.01776713  0.06214701     0.85900
O907        O  0.49121300  0.04689837  0.05825870    -0.64700
Ni908      Ni  0.49842183  0.06900871  0.03255261     1.27400
Ni909      Ni  0.48648002  0.97329978  0.03939207     1.26100
H910        H  0.52680996  0.99883269  0.04995218     0.40400
O911        O  0.49520263  0.96060974  0.97069722    -0.79500
O912        O  0.53756987  0.95756937  0.94123671    -0.64200
O913        O  0.55622273  0.98361244  0.96026067    -1.10800
C914        C  0.52678762  0.10391814  0.95483461     1.07400
O915        O  0.58283943  0.03051517  0.93826681    -0.77400
O916        O  0.62131961  0.09062478  0.94881815    -0.65000
Ni917      Ni  0.52867070  0.93439466  0.96670582     1.34900
C918        C  0.63027860  0.09956871  0.95516252     0.86100
O919        O  0.55907794  0.91846045  0.95146342    -0.78000
O920        O  0.56018529  0.90542308  0.96280213    -0.88200
C921        C  0.56497205  0.98751421  0.93700887     0.85700
O922        O  0.47377893  0.89245243  0.96191592    -0.66400
O923        O  0.54705386  0.10483822  0.94918901    -0.85700
C924        C  0.45715974  0.89452490  0.95614870     0.86500
C925        C  0.56423124  0.89681762  0.95652370     1.08100
H926        H  0.49856018  0.00351458  0.94931717     0.39900
O927        O  0.53073201  0.01641827  0.95048169    -1.08400
O928        O  0.60031700  0.07930793  0.95990446    -0.65000
Ni929      Ni  0.53669466  0.02879821  0.96015816     1.26300
O930        O  0.48062553  0.92500160  0.95167059    -0.65300
O931        O  0.51639238  0.07314220  0.95948101    -0.77600
C932        C  0.51663711  0.99895389  0.97372654     0.85900
O933        O  0.53982931  0.03513478  0.97010182    -0.64700
Ni934      Ni  0.56384156  0.06529126  0.94414567     1.27400
Ni935      Ni  0.54556445  0.96823242  0.95082100     1.26100
H936        H  0.58908243  0.99908482  0.96102997     0.40400
C937        C  0.55071878  0.02299859  0.00737533     0.14000
C938        C  0.51053306  0.99509945  0.00358789     0.01000
C939        C  0.46986625  0.96438794  0.00711998     0.16000
C940        C  0.46896087  0.96298423  0.01433170     0.25400
C941        C  0.50857645  0.99261682  0.01811909    -0.40900
C942        C  0.54976566  0.02184332  0.01457299     0.32400
C943        C  0.51150138  0.99684541  0.99595372    -0.20500
F944        F  0.43050945  0.93707326  0.00358100    -0.13300
F945        F  0.58905336  0.04979813  0.01809310    -0.13800
C946        C  0.50143108  0.95721194  0.99222896     0.16000
C947        C  0.50318649  0.95830737  0.98505539     0.25400
C948        C  0.51503377  0.99929528  0.98138259    -0.40900
C949        C  0.52504799  0.03913898  0.98512451     0.32400
C950        C  0.52323941  0.03788060  0.99235963     0.14100
F951        F  0.49094931  0.91745107  0.99556478    -0.13200
F952        F  0.53567774  0.07893301  0.98179878    -0.13800
F953        F  0.49434384  0.91912097  0.98172941    -0.16000
F954        F  0.53218210  0.07648755  0.99586092    -0.14600
F955        F  0.59092501  0.05139024  0.00409380    -0.14600
F956        F  0.42863051  0.93490429  0.01760336    -0.16000
C957        C  0.81085146  0.29363625  0.94986274     0.14000
C958        C  0.79862636  0.27325371  0.95643111     0.01000
C959        C  0.82295106  0.29977681  0.96218663     0.16000
C960        C  0.85815182  0.34586651  0.96140496     0.25400
C961        C  0.87021671  0.36654316  0.95481977    -0.40900
C962        C  0.84619115  0.33934651  0.94905418     0.32400
C963        C  0.75884745  0.22535402  0.95721729     0.01100
F964        F  0.81269169  0.28097929  0.96859231    -0.13300
F965        F  0.85660054  0.35676515  0.94256295    -0.13800
C966        C  0.75617779  0.18898400  0.95324286     0.16000
C967        C  0.71535300  0.14623808  0.95302520     0.25400
C968        C  0.67661214  0.13856722  0.95688769    -0.40900
C969        C  0.68064471  0.17348742  0.96133167     0.32400
C970        C  0.72115190  0.21658872  0.96144025     0.14100
F971        F  0.79254000  0.19544579  0.94933999    -0.13200
F972        F  0.64379869  0.16756668  0.96505623    -0.13800
F973        F  0.71292934  0.11292718  0.94878745    -0.16000
F974        F  0.72200731  0.25091196  0.96524697    -0.14600
F975        F  0.78747535  0.26969758  0.94418878    -0.14600
F976        F  0.87967022  0.37036404  0.96713266    -0.16000
C977        C  0.24652837  0.72705933  0.94781935     0.14000
C978        C  0.26338255  0.76508073  0.95224229     0.01000
C979        C  0.23320627  0.76867634  0.95687073     0.16000
C980        C  0.18739750  0.73303714  0.95741910     0.25400
C981        C  0.17103530  0.69355818  0.95327869    -0.40900
C982        C  0.20058633  0.69167083  0.94829030     0.32400
C983        C  0.31345222  0.79725696  0.95277934     0.01100
F984        F  0.24902619  0.80532604  0.96117684    -0.13300
F985        F  0.18644964  0.65348213  0.94435742    -0.13800
C986        C  0.33457343  0.83949742  0.94925915     0.16000
C987        C  0.38172615  0.87062834  0.95015120     0.25400
C988        C  0.40821963  0.86021267  0.95469364    -0.40900
C989        C  0.38678125  0.81723220  0.95810549     0.32400
C990        C  0.33995003  0.78606256  0.95711848     0.14100
F991        F  0.30931149  0.85091633  0.94507182    -0.13200
F992        F  0.41104887  0.80523420  0.96241842    -0.13800
F993        F  0.40092897  0.91166829  0.94678803    -0.16000
F994        F  0.32005351  0.74512614  0.96052411    -0.14600
F995        F  0.27542069  0.72275218  0.94338026    -0.14600
F996        F  0.15964994  0.73601753  0.96222693    -0.16000
C997        C  0.79662277  0.23677660  0.04022363     0.14000
C998        C  0.76717677  0.23248791  0.04566182     0.01000
C999        C  0.78297107  0.26602318  0.05082958     0.16000
C1000       C  0.82619895  0.30559058  0.05024877     0.25400
C1001       C  0.85405637  0.31225225  0.04444506    -0.40900
C1002       C  0.83987998  0.27637601  0.03961800     0.32400
C1003       C  0.71755080  0.19928557  0.04512658     0.01100
F1004       F  0.75456096  0.26277958  0.05604627    -0.13300
F1005       F  0.86662726  0.28082943  0.03409456    -0.13800
C1006       C  0.69522185  0.16184406  0.04966451     0.16000
C1007       C  0.64764135  0.13150408  0.04906588     0.25400
C1008       C  0.62191305  0.13872265  0.04394511    -0.40900
C1009       C  0.64467675  0.17755179  0.03959245     0.32400
C1010       C  0.69189749  0.20721825  0.04016756     0.14100
F1011       F  0.71959849  0.15447632  0.05459950    -0.13200
F1012       F  0.62126765  0.18745552  0.03480076    -0.13800
F1013       F  0.62714097  0.09472115  0.05338202    -0.16000
F1014       F  0.71266546  0.24451369  0.03593955    -0.14600
F1015       F  0.78190475  0.20423670  0.03521777    -0.14600
F1016       F  0.83834481  0.33948828  0.05496836    -0.16000
C1017       C  0.26973172  0.80862050  0.04633013     0.14000
C1018       C  0.26535847  0.77935677  0.04087054     0.01000
C1019       C  0.30114419  0.79406067  0.03603810     0.16000
C1020       C  0.34196667  0.83638673  0.03690531     0.25400
C1021       C  0.34772470  0.86422336  0.04268678    -0.40900
C1022       C  0.31056046  0.85045732  0.04726593     0.32400
C1023       C  0.22709274  0.73101267  0.04102135     0.01100
F1024       F  0.29798536  0.76591749  0.03079433    -0.13300
F1025       F  0.31458445  0.87641508  0.05286060    -0.13800
C1026       C  0.18854648  0.71532924  0.03668798     0.16000
C1027       C  0.15040131  0.67084992  0.03756632     0.25400
C1028       C  0.15034084  0.64151801  0.04282456    -0.40900
C1029       C  0.19021922  0.65710144  0.04692529     0.32400
C1030       C  0.22798335  0.70118251  0.04601479     0.14100
F1031       F  0.18728697  0.74354097  0.03176485    -0.13200
F1032       F  0.19299413  0.62971781  0.05185052    -0.13800
F1033       F  0.11308500  0.65725392  0.03343354    -0.16000
F1034       F  0.26554051  0.71523144  0.05011501    -0.14600
F1035       F  0.23532603  0.79512014  0.05102222    -0.14600
F1036       F  0.37734878  0.84794868  0.03245522    -0.16000
C1037       C  0.04249916  0.49942909  0.99177074     0.14000
C1038       C  0.00927267  0.50497069  0.99534155     0.01000
C1039       C  0.97492355  0.50812530  0.99159651     0.16000
C1040       C  0.97465223  0.50710343  0.98437325     0.25400
C1041       C  0.00870660  0.50274219  0.98077077    -0.40900
C1042       C  0.04220127  0.49817031  0.98457392     0.32400
C1043       C  0.00923908  0.50515988  0.00297998     0.01100
F1044       F  0.94233866  0.51343863  0.99494415    -0.13300
F1045       F  0.07487195  0.49245489  0.98132867    -0.13800
C1046       C  0.04646046  0.53973769  0.00673795     0.16000
C1047       C  0.04625035  0.53877264  0.01397714     0.25400
C1048       C  0.00864745  0.50338375  0.01753181    -0.40900
C1049       C  0.97171854  0.46876258  0.01372863     0.32400
C1050       C  0.97211769  0.46961955  0.00654618     0.14100
F1051       F  0.08243928  0.57491626  0.00339158    -0.13200
F1052       F  0.93533199  0.43333960  0.01697997    -0.13800
F1053       F  0.08178275  0.57316855  0.01749489    -0.16000
F1054       F  0.93649497  0.43511023  0.00305214    -0.14600
F1055       F  0.07499550  0.49463037  0.99527335    -0.14600
F1056       F  0.94236217  0.51248291  0.98091864    -0.16000
C1057       C  0.80925346  0.51323813  0.96335469     0.14000
C1058       C  0.79335915  0.53214431  0.95831198     0.01000
C1059       C  0.82326297  0.55848350  0.95296354     0.16000
C1060       C  0.86614017  0.56132685  0.95220246     0.25400
C1061       C  0.88001481  0.53795751  0.95679852    -0.40900
C1062       C  0.85248691  0.51644420  0.96264110     0.32400
C1063       C  0.74371167  0.51794323  0.95785916     0.01100
F1064       F  0.80936148  0.57858280  0.94816976    -0.13300
F1065       F  0.86501732  0.49422714  0.96726854    -0.13800
C1066       C  0.72190019  0.53125207  0.96277861     0.16000
C1067       C  0.67538078  0.51902806  0.96195413     0.25400
C1068       C  0.64989743  0.49304355  0.95620129    -0.40900
C1069       C  0.67169861  0.47806137  0.95148040     0.32400
C1070       C  0.71786806  0.49047730  0.95230199     0.14100
F1071       F  0.74598110  0.55717805  0.96826150    -0.13200
F1072       F  0.64840393  0.45105869  0.94602953    -0.13800
F1073       F  0.65588825  0.53395111  0.96665635    -0.16000
F1074       F  0.73753894  0.47543515  0.94763660    -0.14600
F1075       F  0.78117645  0.48790735  0.96859963    -0.14600
F1076       F  0.89276313  0.58436189  0.94669792    -0.16000
C1077       C  0.16837183  0.47079835  0.94847359     0.14000
C1078       C  0.21215249  0.49402186  0.95155205     0.01000
C1079       C  0.22398734  0.53245196  0.95570784     0.16000
C1080       C  0.19270877  0.54767791  0.95680552     0.25400
C1081       C  0.14871902  0.52488243  0.95372335    -0.40900
C1082       C  0.13689804  0.48640174  0.94949721     0.32400
C1083       C  0.24606591  0.47848264  0.95073640     0.01100
F1084       F  0.26590763  0.55486570  0.95881583    -0.13300
F1085       F  0.09451100  0.46305938  0.94656153    -0.13800
C1086       C  0.28572135  0.50483229  0.94675187     0.16000
C1087       C  0.32404042  0.49895494  0.94747275     0.25400
C1088       C  0.32316086  0.46657741  0.95220881    -0.40900
C1089       C  0.28217932  0.43793123  0.95580792     0.32400
C1090       C  0.24385890  0.44383231  0.95506995     0.14100
F1091       F  0.28865242  0.53893966  0.94260792    -0.13200
F1092       F  0.28020661  0.40604243  0.96033642    -0.13800
F1093       F  0.36353790  0.52837033  0.94411185    -0.16000
F1094       F  0.20605248  0.41850219  0.95903443    -0.14600
F1095       F  0.15611620  0.43299692  0.94453898    -0.14600
F1096       F  0.20583132  0.58520493  0.96085459    -0.16000
C1097       C  0.47043413  0.26120318  0.95028521     0.14000
C1098       C  0.48190326  0.24972450  0.95665197     0.01000
C1099       C  0.48855898  0.27804962  0.96236208     0.16000
C1100       C  0.48726831  0.31917653  0.96158959     0.25400
C1101       C  0.47981090  0.33293141  0.95505165    -0.40900
C1102       C  0.46920108  0.30213008  0.94948260     0.32400
C1103       C  0.49396723  0.21264114  0.95695850     0.01100
F1104       F  0.49955741  0.26755977  0.96858064    -0.13300
F1105       F  0.46018198  0.31275066  0.94312544    -0.13800
C1106       C  0.53718152  0.22193648  0.95450205     0.16000
C1107       C  0.54806030  0.18679427  0.95401406     0.25400
C1108       C  0.51589843  0.14136061  0.95597288    -0.40900
C1109       C  0.47310671  0.13227148  0.95868029     0.32400
C1110       C  0.46218176  0.16769138  0.95914973     0.14100
F1111       F  0.56863109  0.26518359  0.95242933    -0.13200
F1112       F  0.44104807  0.08874313  0.96053399    -0.13800
F1113       F  0.59025805  0.19724377  0.95161637    -0.16000
F1114       F  0.42011244  0.15782881  0.96151503    -0.14600
F1115       F  0.46332533  0.23405757  0.94471151    -0.14600
F1116       F  0.49719299  0.34723601  0.96712425    -0.16000
C1117       C  0.55568348  0.69360753  0.95071535     0.14000
C1118       C  0.53597466  0.71535885  0.95441845     0.01000
C1119       C  0.49686110  0.68869680  0.95847416     0.16000
C1120       C  0.47781426  0.64101559  0.95890131     0.25400
C1121       C  0.49759917  0.61871929  0.95527604    -0.40900
C1122       C  0.53677489  0.64561843  0.95115447     0.32400
C1123       C  0.55520593  0.76582459  0.95413762     0.01100
F1124       F  0.47681002  0.70902106  0.96200097    -0.13300
F1125       F  0.55768247  0.62578797  0.94773608    -0.13800
C1126       C  0.54521651  0.78588301  0.94853537     0.16000
C1127       C  0.55282741  0.83087734  0.94900858     0.25400
C1128       C  0.57036758  0.85648854  0.95512930    -0.40900
C1129       C  0.58482663  0.83772594  0.96044201     0.32400
C1130       C  0.57686466  0.79265748  0.95996661     0.14100
F1131       F  0.52413362  0.76043884  0.94285473    -0.13200
F1132       F  0.60384763  0.86179027  0.96630840    -0.13800
F1133       F  0.53856259  0.84730293  0.94373791    -0.16000
F1134       F  0.58732374  0.77398066  0.96540714    -0.14600
F1135       F  0.59372083  0.71896818  0.94679769    -0.14600
F1136       F  0.43951979  0.61667617  0.96282260    -0.16000
C1137       C  0.84205638  0.53436738  0.05006920     0.14000
C1138       C  0.81026951  0.52910424  0.04491259     0.01000
C1139       C  0.80789299  0.50456831  0.03892472     0.16000
C1140       C  0.83652762  0.48575153  0.03807000     0.25400
C1141       C  0.86820040  0.49025241  0.04325130    -0.40900
C1142       C  0.87058746  0.51502236  0.04927210     0.32400
C1143       C  0.77704410  0.54601708  0.04579848     0.01100
F1144       F  0.77655412  0.49748204  0.03393463    -0.13300
F1145       F  0.90054686  0.52076275  0.05440747    -0.13800
C1146       C  0.77243985  0.57284798  0.04061150     0.16000
C1147       C  0.73308351  0.57727555  0.04029561     0.25400
C1148       C  0.69762755  0.55520061  0.04519970    -0.40900
C1149       C  0.70525434  0.53362352  0.05089764     0.32400
C1150       C  0.74463911  0.52903723  0.05118343     0.14100
F1151       F  0.80461362  0.59205638  0.03556167    -0.13200
F1152       F  0.67248851  0.51266906  0.05582556    -0.13800
F1153       F  0.72832597  0.60066189  0.03492765    -0.16000
F1154       F  0.74871476  0.50408245  0.05637733    -0.14600
F1155       F  0.84579581  0.55861122  0.05585732    -0.14600
F1156       F  0.83253328  0.46264399  0.03214283    -0.16000
C1157       C  0.28340315  0.46195055  0.03802372     0.14000
C1158       C  0.26756556  0.48559353  0.04214734     0.01000
C1159       C  0.29877130  0.52074076  0.04649304     0.16000
C1160       C  0.34467341  0.53138511  0.04688606     0.25400
C1161       C  0.36061329  0.50641974  0.04301845    -0.40900
C1162       C  0.32952255  0.47214564  0.03846126     0.32400
C1163       C  0.21871331  0.47444364  0.04205728     0.01100
F1164       F  0.28463951  0.54499512  0.05038552    -0.13300
F1165       F  0.34321787  0.44751859  0.03458420    -0.13800
C1166       C  0.19144447  0.45607016  0.04797275     0.16000
C1167       C  0.14917019  0.45478800  0.04856281     0.25400
C1168       C  0.13352471  0.47270086  0.04327686    -0.40900
C1169       C  0.15914086  0.48729753  0.03709465     0.32400
C1170       C  0.20139510  0.48821661  0.03651170     0.14100
F1171       F  0.20713105  0.44182452  0.05336359    -0.13200
F1172       F  0.14548263  0.50439416  0.03181950    -0.13800
F1173       F  0.12485772  0.43834116  0.05449388    -0.16000
F1174       F  0.22720456  0.50613190  0.03074500    -0.14600
F1175       F  0.25388831  0.42812028  0.03372757    -0.14600
F1176       F  0.37346817  0.56646601  0.05107962    -0.16000
C1177       C  0.50344612  0.22793893  0.05073346     0.14000
C1178       C  0.48184485  0.24386553  0.04619974     0.01000
C1179       C  0.45123050  0.21382057  0.04120824     0.16000
C1180       C  0.44441152  0.16920280  0.04049489     0.25400
C1181       C  0.46820297  0.15406384  0.04476938    -0.40900
C1182       C  0.49676710  0.18347159  0.05002921     0.32400
C1183       C  0.49810048  0.29373968  0.04579470     0.01100
F1184       F  0.43019720  0.22878274  0.03675406    -0.13300
F1185       F  0.52210287  0.17107481  0.05402756    -0.13800
C1186       C  0.53139821  0.32023184  0.04086265     0.16000
C1187       C  0.54749588  0.36732435  0.04024833     0.25400
C1188       C  0.53048798  0.38930953  0.04457521    -0.40900
C1189       C  0.49816923  0.36276187  0.04972302     0.32400
C1190       C  0.48207062  0.31527782  0.05030793     0.14100
F1191       F  0.54857104  0.30027126  0.03662560    -0.13200
F1192       F  0.48142731  0.38235732  0.05410450    -0.13800
F1193       F  0.57999799  0.39123877  0.03539155    -0.16000
F1194       F  0.45043251  0.29022431  0.05520605    -0.14600
F1195       F  0.53415293  0.25686939  0.05545514    -0.14600
F1196       F  0.41621733  0.14157069  0.03543584    -0.16000
C1197       C  0.53666044  0.82018138  0.03707877     0.14000
C1198       C  0.52549199  0.78712664  0.04228459     0.01000
C1199       C  0.50623562  0.79133850  0.04844421     0.16000
C1200       C  0.49780033  0.82771977  0.04940965     0.25400
C1201       C  0.50891168  0.86143111  0.04422369    -0.40900
C1202       C  0.52885461  0.85726651  0.03804722     0.32400
C1203       C  0.53177207  0.74677608  0.04134907     0.01100
F1204       F  0.49425260  0.75914913  0.05348824    -0.13300
F1205       F  0.54070881  0.88882554  0.03291815    -0.13800
C1206       C  0.56384315  0.74206245  0.04543085     0.16000
C1207       C  0.56260987  0.69973896  0.04582169     0.25400
C1208       C  0.52919762  0.66141275  0.04213478    -0.40900
C1209       C  0.49935152  0.66720522  0.03764930     0.32400
C1210       C  0.50063319  0.70960779  0.03727032     0.14100
F1211       F  0.59439947  0.77770555  0.04938051    -0.13200
F1212       F  0.46566819  0.63060563  0.03420352    -0.13800
F1213       F  0.59236130  0.69546415  0.05010520    -0.16000
F1214       F  0.46869363  0.71314581  0.03340836    -0.14600
F1215       F  0.55515880  0.81653182  0.03106481    -0.14600
F1216       F  0.47760260  0.82890739  0.05540243    -0.16000
C1217       C  0.50561065  0.52767170  0.99191868     0.14000
C1218       C  0.50157356  0.49034299  0.99576473     0.01000
C1219       C  0.50051240  0.45303674  0.99223710     0.16000
C1220       C  0.50233325  0.45273396  0.98499466     0.25400
C1221       C  0.50508744  0.48969314  0.98113908    -0.40900
C1222       C  0.50728823  0.52741471  0.98473382     0.32400
C1223       C  0.50057805  0.49167991  0.00344391     0.01100
F1224       F  0.49640740  0.41624411  0.99580190    -0.13300
F1225       F  0.51102703  0.56452522  0.98130093    -0.13800
C1226       C  0.46823631  0.49949077  0.00696274     0.16000
C1227       C  0.46927850  0.50309771  0.01419015     0.25400
C1228       C  0.50231791  0.49836985  0.01803335    -0.40900
C1229       C  0.53464914  0.49073242  0.01446810     0.32400
C1230       C  0.53381727  0.48758163  0.00729353     0.14100
F1231       F  0.43518736  0.50297695  0.00340085    -0.13200
F1232       F  0.56827737  0.48753761  0.01791641    -0.13800
F1233       F  0.43739357  0.51009520  0.01741862    -0.16000
F1234       F  0.56666346  0.48196778  0.00408589    -0.14600
F1235       F  0.50868779  0.56504735  0.99513349    -0.14600
F1236       F  0.49954586  0.41553215  0.98177245    -0.16000
C1237       C  0.97678329  0.38615068  0.07923328     0.14000
C1238       C  0.92907698  0.35777643  0.08019274     0.01000
C1239       C  0.89886508  0.36254686  0.07568309     0.16000
C1240       C  0.91598408  0.39324201  0.07009535     0.25400
C1241       C  0.96393969  0.41981896  0.06884312    -0.40900
C1242       C  0.99407850  0.41679086  0.07364371     0.32400
C1243       C  0.91109972  0.32260525  0.08580276     0.01100
F1244       F  0.85256657  0.33625040  0.07654620    -0.13300
F1245       F  0.04046675  0.44281638  0.07289671    -0.13800
C1246       C  0.88315642  0.32426805  0.09103814     0.16000
C1247       C  0.86780018  0.29217807  0.09644333     0.25400
C1248       C  0.88004933  0.25744020  0.09677011    -0.40900
C1249       C  0.90690396  0.25506005  0.09137743     0.32400
C1250       C  0.92226847  0.28731747  0.08597323     0.14100
F1251       F  0.87189981  0.35799273  0.09104754    -0.13200
F1252       F  0.91826122  0.22143920  0.09129736    -0.13800
F1253       F  0.84203116  0.29626241  0.10146705    -0.16000
F1254       F  0.94793399  0.28393309  0.08085144    -0.14600
F1255       F  0.00678595  0.38405027  0.08372842    -0.14600
F1256       F  0.88527781  0.39614442  0.06585573    -0.16000
C1257       C  0.83041278  0.13725355  0.17375398     0.14000
C1258       C  0.82119871  0.16720195  0.16990722     0.01000
C1259       C  0.80670668  0.19463998  0.17342317     0.16000
C1260       C  0.80243753  0.19260498  0.18065588     0.25400
C1261       C  0.81329903  0.16363241  0.18451608    -0.40900
C1262       C  0.82662408  0.13546790  0.18092018     0.32400
C1263       C  0.82489642  0.16780571  0.16223247     0.01100
F1264       F  0.79759927  0.22414848  0.16986784    -0.13300
F1265       F  0.83538044  0.10516744  0.18432147    -0.13800
C1266       C  0.78674557  0.15876617  0.15813709     0.16000
C1267       C  0.78930614  0.15780432  0.15096006     0.25400
C1268       C  0.83013303  0.16574655  0.14763700    -0.40900
C1269       C  0.86809878  0.17364095  0.15172387     0.32400
C1270       C  0.86557361  0.17488646  0.15895242     0.14100
F1271       F  0.74651767  0.15024162  0.16108964    -0.13200
F1272       F  0.90834440  0.18257642  0.14873419    -0.13800
F1273       F  0.75153551  0.14938272  0.14723210    -0.16000
F1274       F  0.90341813  0.18451233  0.16274855    -0.14600
F1275       F  0.84212617  0.10861090  0.17054473    -0.14600
F1276       F  0.78864759  0.21960845  0.18386418    -0.16000
C1277       C  0.10617069  0.14247789  0.11766813     0.14000
C1278       C  0.10764652  0.17457417  0.12241692     0.01000
C1279       C  0.14644505  0.19809654  0.12667915     0.16000
C1280       C  0.18399560  0.19057852  0.12605416     0.25400
C1281       C  0.18322613  0.15918984  0.12115109    -0.40900
C1282       C  0.14323431  0.13462388  0.11705078     0.32400
C1283       C  0.06864694  0.18362459  0.12271434     0.01100
F1284       F  0.14832128  0.22904772  0.13134444    -0.13300
F1285       F  0.13951689  0.10254740  0.11243645    -0.13800
C1286       C  0.03356363  0.16129532  0.12762241     0.16000
C1287       C  0.99287893  0.16347394  0.12715062     0.25400
C1288       C  0.98661271  0.18798884  0.12173679    -0.40900
C1289       C  0.02293278  0.21223692  0.11703640     0.32400
C1290       C  0.06355996  0.21008717  0.11753299     0.14100
F1291       F  0.03743435  0.13482142  0.13259170    -0.13200
F1292       F  0.01831094  0.23647898  0.11178295    -0.13800
F1293       F  0.95800163  0.13811051  0.13160966    -0.16000
F1294       F  0.09718443  0.23206989  0.11275241    -0.14600
F1295       F  0.06855724  0.11863526  0.11359482    -0.14600
F1296       F  0.22146568  0.21493527  0.13012043    -0.16000
C1297       C  0.55331026  0.15696793  0.11514045     0.14000
C1298       C  0.56593987  0.13267035  0.11969566     0.01000
C1299       C  0.53281479  0.09973268  0.12415205     0.16000
C1300       C  0.48828128  0.09349220  0.12437967     0.25400
C1301       C  0.47658195  0.12048396  0.12019280    -0.40900
C1302       C  0.50907182  0.15112622  0.11539645     0.32400
C1303       C  0.61518166  0.14799360  0.12062748     0.01100
F1304       F  0.54453383  0.07580509  0.12857658    -0.13300
F1305       F  0.49999198  0.17944541  0.11151845    -0.13800
C1306       C  0.63828651  0.17513323  0.12635091     0.16000
C1307       C  0.68577357  0.19405665  0.12705691     0.25400
C1308       C  0.71139290  0.18605780  0.12202895    -0.40900
C1309       C  0.68774659  0.15834310  0.11628752     0.32400
C1310       C  0.64007221  0.13978538  0.11558662     0.14100
F1311       F  0.61491171  0.18479022  0.13115266    -0.13200
F1312       F  0.71052325  0.14922184  0.11132162    -0.13800
F1313       F  0.70651358  0.22097297  0.13262844    -0.16000
F1314       F  0.61819338  0.11412597  0.10996067    -0.14600
F1315       F  0.58526272  0.18976727  0.11092748    -0.14600
F1316       F  0.45744355  0.06303685  0.12895844    -0.16000
C1317       C  0.34826367  0.07349843  0.08504087     0.14000
C1318       C  0.39441576  0.08407867  0.08461652     0.01000
C1319       C  0.42534050  0.11067475  0.08982645     0.16000
C1320       C  0.41030542  0.12552634  0.09545001     0.25400
C1321       C  0.36365789  0.11356816  0.09605470    -0.40900
C1322       C  0.33295382  0.08797494  0.09070665     0.32400
C1323       C  0.41050202  0.06695126  0.07882530     0.01100
F1324       F  0.46999926  0.12092798  0.08959841    -0.13300
F1325       F  0.28803744  0.07682306  0.09094238    -0.13800
C1326       C  0.44742235  0.09801469  0.07469547     0.16000
C1327       C  0.46412778  0.08205322  0.06942313     0.25400
C1328       C  0.44389740  0.03439749  0.06808595    -0.40900
C1329       C  0.40680819  0.00329098  0.07227348     0.32400
C1330       C  0.39038287  0.01947207  0.07758107     0.14100
F1331       F  0.46706870  0.14411983  0.07571872    -0.13200
F1332       F  0.38620097  0.95711297  0.07126242    -0.13800
F1333       F  0.50008578  0.11363735  0.06562079    -0.16000
F1334       F  0.35531050  0.98862423  0.08160535    -0.14600
F1335       F  0.31801329  0.04924926  0.07994742    -0.14600
F1336       F  0.44135986  0.15020187  0.10041970    -0.16000
C1337       C  0.30120292  0.14321985  0.15804913     0.14000
C1338       C  0.33573126  0.18402617  0.16109017     0.01000
C1339       C  0.36573985  0.22089034  0.15688743     0.16000
C1340       C  0.36224300  0.21671647  0.14972828     0.25400
C1341       C  0.32859673  0.17541534  0.14662535    -0.40900
C1342       C  0.29760352  0.13889139  0.15085591     0.32400
C1343       C  0.33861404  0.18934861  0.16865168     0.01100
F1344       F  0.39851750  0.26097792  0.15973290    -0.13300
F1345       F  0.26556375  0.09829133  0.14804996    -0.13800
C1346       C  0.37095567  0.18355210  0.17252543     0.16000
C1347       C  0.37181700  0.18706656  0.17974524     0.25400
C1348       C  0.34018157  0.19621953  0.18311832    -0.40900
C1349       C  0.30924113  0.20377997  0.17917209     0.32400
C1350       C  0.30856068  0.20046621  0.17201304     0.14100
F1351       F  0.40053409  0.17305820  0.16932805    -0.13200
F1352       F  0.27900628  0.21374185  0.18228975    -0.13800
F1353       F  0.40152438  0.17897676  0.18343621    -0.16000
F1354       F  0.27803744  0.20747321  0.16834154    -0.14600
F1355       F  0.27169513  0.10726655  0.16206325    -0.14600
F1356       F  0.39220861  0.25307521  0.14581129    -0.16000
C1357       C  0.51710135  0.16546661  0.20295688     0.14000
C1358       C  0.53834893  0.16076298  0.20892317     0.01000
C1359       C  0.52288386  0.16591203  0.21539263     0.16000
C1360       C  0.48727320  0.17588900  0.21592108     0.25400
C1361       C  0.46629806  0.18157065  0.20996753    -0.40900
C1362       C  0.48141296  0.17575557  0.20346372     0.32400
C1363       C  0.57894537  0.15412921  0.20850627     0.01100
F1364       F  0.54356144  0.16308021  0.22125169    -0.13300
F1365       F  0.46266472  0.18121767  0.19758033    -0.13800
C1366       C  0.61867743  0.18644695  0.20496677     0.16000
C1367       C  0.65947834  0.18487359  0.20546921     0.25400
C1368       C  0.66164933  0.15155641  0.20963533    -0.40900
C1369       C  0.62160364  0.11815773  0.21297154     0.32400
C1370       C  0.58033621  0.11895425  0.21231684     0.14100
F1371       F  0.61913542  0.22187731  0.20147940    -0.13200
F1372       F  0.62285881  0.08572705  0.21702934    -0.13800
F1373       F  0.69809329  0.21873241  0.20240982    -0.16000
F1374       F  0.54213662  0.08648945  0.21563448    -0.14600
F1375       F  0.53117176  0.16044108  0.19662890    -0.14600
F1376       F  0.47363866  0.18015527  0.22232499    -0.16000
C1377       C  0.01014962  0.17914448  0.20421791     0.14000
C1378       C  0.03468774  0.19669956  0.21039374     0.01000
C1379       C  0.01061310  0.19717965  0.21630116     0.16000
C1380       C  0.96273573  0.17887241  0.21609003     0.25400
C1381       C  0.93809101  0.16035019  0.20992796    -0.40900
C1382       C  0.96271182  0.16187842  0.20395828     0.32400
C1383       C  0.08433528  0.21050099  0.21070400     0.01100
F1384       F  0.03340028  0.21505327  0.22230117    -0.13300
F1385       F  0.94098185  0.14656595  0.19781093    -0.13800
C1386       C  0.11532883  0.23970087  0.20564035     0.16000
C1387       C  0.15903630  0.24421450  0.20498689     0.25400
C1388       C  0.17314766  0.22083958  0.20953409    -0.40900
C1389       C  0.14366637  0.19505625  0.21497034     0.32400
C1390       C  0.09963370  0.18962639  0.21551836     0.14100
F1391       F  0.10246859  0.26226308  0.20112737    -0.13200
F1392       F  0.15544407  0.17101987  0.21934756    -0.13800
F1393       F  0.18684773  0.27002405  0.19974835    -0.16000
F1394       F  0.07061100  0.16057132  0.22040079    -0.14600
F1395       F  0.03176264  0.17684992  0.19844951    -0.14600
F1396       F  0.94050197  0.17823949  0.22196377    -0.16000
C1397       C  0.75942881  0.84788693  0.12107975     0.14000
C1398       C  0.79155742  0.88471940  0.12515001     0.01000
C1399       C  0.82169852  0.87783762  0.12939817     0.16000
C1400       C  0.82251006  0.83643558  0.12910215     0.25400
C1401       C  0.79374244  0.80157876  0.12446022    -0.40900
C1402       C  0.76085571  0.80690833  0.12068115     0.32400
C1403       C  0.79859710  0.93189005  0.12412902     0.01100
F1404       F  0.85350290  0.91279630  0.13332366    -0.13300
F1405       F  0.73193812  0.77344639  0.11628004    -0.13800
C1406       C  0.79879020  0.95875957  0.12969035     0.16000
C1407       C  0.80980375  0.00469242  0.12866178     0.25400
C1408       C  0.82079802  0.02476100  0.12201756    -0.40900
C1409       C  0.81922297  0.99695646  0.11644562     0.32400
C1410       C  0.80862098  0.95147071  0.11750675     0.14100
F1411       F  0.78847834  0.94056546  0.13613445    -0.13200
F1412       F  0.82861193  0.01365739  0.10990981    -0.13800
F1413       F  0.81040618  0.02952416  0.13421099    -0.16000
F1414       F  0.81004392  0.92701868  0.11204084    -0.14600
F1415       F  0.72862277  0.85278010  0.11713337    -0.14600
F1416       F  0.85500753  0.83264318  0.13277761    -0.16000
C1417       C  0.83196068  0.40011502  0.11495540     0.14000
C1418       C  0.85968574  0.43893700  0.11903013     0.01000
C1419       C  0.89497375  0.43937566  0.12304853     0.16000
C1420       C  0.89889435  0.39987541  0.12361404     0.25400
C1421       C  0.86904627  0.36001007  0.11991497    -0.40900
C1422       C  0.83686643  0.36109813  0.11535603     0.32400
C1423       C  0.84681096  0.47498792  0.12005839     0.01100
F1424       F  0.92362671  0.47713495  0.12680553    -0.13300
F1425       F  0.80641100  0.32257841  0.11190514    -0.13800
C1426       C  0.83817598  0.48421671  0.12677019     0.16000
C1427       C  0.82404974  0.51623152  0.12794365     0.25400
C1428       C  0.81644960  0.53902025  0.12239985    -0.40900
C1429       C  0.82478488  0.52956290  0.11564252     0.32400
C1430       C  0.84013350  0.49805240  0.11449251     0.14100
F1431       F  0.84166363  0.46074655  0.13224072    -0.13200
F1432       F  0.81693186  0.54971865  0.11012884    -0.13800
F1433       F  0.81732385  0.52425502  0.13457438    -0.16000
F1434       F  0.84816732  0.48987877  0.10794177    -0.14600
F1435       F  0.79705901  0.39807234  0.11111713    -0.14600
F1436       F  0.93013766  0.39972401  0.12806433    -0.16000
C1437       C  0.11855675  0.96705490  0.12807067     0.14000
C1438       C  0.10601413  0.92929120  0.12369418     0.01000
C1439       C  0.13917821  0.92989704  0.11919367     0.16000
C1440       C  0.18262123  0.96927150  0.11859383     0.25400
C1441       C  0.19410295  0.00837769  0.12261604    -0.40900
C1442       C  0.16245730  0.00604173  0.12760320     0.32400
C1443       C  0.05740067  0.89155371  0.12324682     0.01100
F1444       F  0.12855538  0.89307734  0.11510924    -0.13300
F1445       F  0.17213021  0.04322534  0.13154476    -0.13800
C1446       C  0.03464459  0.88140149  0.11686667     0.16000
C1447       C  0.98948343  0.84516709  0.11623625     0.25400
C1448       C  0.96526737  0.81856276  0.12202916    -0.40900
C1449       C  0.98773271  0.82979830  0.12848969     0.32400
C1450       C  0.03339246  0.86588305  0.12907666     0.14100
F1451       F  0.05610607  0.90710802  0.11120577    -0.13200
F1452       F  0.96566157  0.80615950  0.13426422    -0.13800
F1453       F  0.96991831  0.83601409  0.10988300    -0.16000
F1454       F  0.05438395  0.87525190  0.13532448    -0.14600
F1455       F  0.08711536  0.96790822  0.13237916    -0.14600
F1456       F  0.21260210  0.96998832  0.11383204    -0.16000
C1457       C  0.60629044  0.44150208  0.11633364     0.14000
C1458       C  0.57006541  0.42258186  0.12108288     0.01000
C1459       C  0.57014918  0.44922654  0.12665394     0.16000
C1460       C  0.60693233  0.49413295  0.12757069     0.25400
C1461       C  0.64414503  0.51276863  0.12292396    -0.40900
C1462       C  0.64329350  0.48593599  0.11728541     0.32400
C1463       C  0.53632467  0.37299515  0.12082880     0.01100
F1464       F  0.53587786  0.43073593  0.13140616    -0.13300
F1465       F  0.68043180  0.50072910  0.11309508    -0.13800
C1466       C  0.54807028  0.34185792  0.12371335     0.16000
C1467       C  0.51603791  0.29487536  0.12385565     0.25400
C1468       C  0.47156204  0.27815784  0.12108833    -0.40900
C1469       C  0.46056541  0.30931343  0.11791376     0.32400
C1470       C  0.49278481  0.35658274  0.11782438     0.14100
F1471       F  0.59042659  0.35724114  0.12652955    -0.13200
F1472       F  0.41805392  0.29436038  0.11519909    -0.13800
F1473       F  0.52850501  0.26572438  0.12674495    -0.16000
F1474       F  0.48132256  0.38642563  0.11492836    -0.14600
F1475       F  0.60725282  0.41571277  0.11102484    -0.14600
F1476       F  0.60708831  0.51859749  0.13313986    -0.16000
C1477       C  0.66675445  0.57196648  0.09258749     0.14000
C1478       C  0.67184294  0.60148359  0.08710227     0.01000
C1479       C  0.70720000  0.64781260  0.08737151     0.16000
C1480       C  0.73689382  0.66434721  0.09304492     0.25400
C1481       C  0.73203295  0.63470812  0.09854912    -0.40900
C1482       C  0.69642663  0.58837112  0.09824555     0.32400
C1483       C  0.63965902  0.58424648  0.08117686     0.01100
F1484       F  0.71320853  0.67704388  0.08210169    -0.13300
F1485       F  0.68889562  0.55917511  0.10355652    -0.13800
C1486       C  0.61374217  0.60520755  0.07943188     0.16000
C1487       C  0.58498811  0.59067445  0.07365743     0.25400
C1488       C  0.58161727  0.55474749  0.06945661    -0.40900
C1489       C  0.60577899  0.53208987  0.07146610     0.32400
C1490       C  0.63471423  0.54694149  0.07723603     0.14100
F1491       F  0.61638932  0.64002819  0.08333160    -0.13200
F1492       F  0.60206576  0.49590988  0.06781108    -0.13800
F1493       F  0.56135285  0.61273773  0.07213023    -0.16000
F1494       F  0.65912847  0.52579591  0.07884162    -0.14600
F1495       F  0.63195142  0.52749023  0.09257829    -0.14600
F1496       F  0.77047588  0.70934340  0.09311790    -0.16000
C1497       C  0.16916299  0.99246303  0.21456630     0.14000
C1498       C  0.13765043  0.96710192  0.20933148     0.01000
C1499       C  0.13639576  0.99007887  0.20335199     0.16000
C1500       C  0.16510696  0.03759759  0.20266078     0.25400
C1501       C  0.19584454  0.06379458  0.20798925    -0.40900
C1502       C  0.19815506  0.04029595  0.21390090     0.32400
C1503       C  0.10292368  0.91760996  0.21023470     0.01100
F1504       F  0.10569113  0.96668899  0.19826006    -0.13300
F1505       F  0.22834817  0.06338518  0.21905660    -0.13800
C1506       C  0.06949561  0.90413536  0.21543655     0.16000
C1507       C  0.03030677  0.86019172  0.21535188     0.25400
C1508       C  0.02374195  0.82901237  0.21003114    -0.40900
C1509       C  0.05910922  0.84122574  0.20516004     0.32400
C1510       C  0.09845455  0.88507937  0.20528304     0.14100
F1511       F  0.07253881  0.93502425  0.22021634    -0.13200
F1512       F  0.05443651  0.81157325  0.20005731    -0.13800
F1513       F  0.99654520  0.85014220  0.22004115    -0.16000
F1514       F  0.13094873  0.89680945  0.20031477    -0.14600
F1515       F  0.17168857  0.97088050  0.22034144    -0.14600
F1516       F  0.16177842  0.05778927  0.19677886    -0.16000
C1517       C  0.51331914  0.42212913  0.21307226     0.14000
C1518       C  0.54680026  0.42748882  0.20824266     0.01000
C1519       C  0.53607757  0.39234963  0.20342907     0.16000
C1520       C  0.49355126  0.35118717  0.20372084     0.25400
C1521       C  0.46132255  0.34424567  0.20892188    -0.40900
C1522       C  0.47100992  0.38089431  0.21342284     0.32400
C1523       C  0.59480709  0.46624390  0.20893015     0.01100
F1524       F  0.56814168  0.39657172  0.19876997    -0.13300
F1525       F  0.44034655  0.37594987  0.21838362    -0.13800
C1526       C  0.62404780  0.46294205  0.21378971     0.16000
C1527       C  0.66934118  0.49895205  0.21463446     0.25400
C1528       C  0.68658086  0.53962312  0.21065914    -0.40900
C1529       C  0.65714684  0.54263096  0.20571558     0.32400
C1530       C  0.61167155  0.50616438  0.20486068     0.14100
F1531       F  0.60869282  0.42432905  0.21769853    -0.13200
F1532       F  0.67197280  0.58109572  0.20179435    -0.13800
F1533       F  0.69663734  0.49329544  0.21925083    -0.16000
F1534       F  0.58396376  0.50993580  0.20010648    -0.14600
F1535       F  0.52274134  0.45591624  0.21771505    -0.14600
F1536       F  0.48584232  0.31659508  0.19932750    -0.16000
C1537       C  0.82944658  0.85985609  0.21930017     0.14000
C1538       C  0.81897711  0.88038060  0.21378650     0.01000
C1539       C  0.82543886  0.87015170  0.20701825     0.16000
C1540       C  0.84176172  0.83983802  0.20575343     0.25400
C1541       C  0.85203633  0.81871917  0.21125140    -0.40900
C1542       C  0.84563332  0.82912789  0.21805208     0.32400
C1543       C  0.80421570  0.91487007  0.21494587     0.01100
F1544       F  0.81715356  0.89069436  0.20159152    -0.13300
F1545       F  0.85611247  0.81055430  0.22350185    -0.13800
C1546       C  0.83424122  0.95691148  0.21816315     0.16000
C1547       C  0.82525798  0.99344384  0.21792171     0.25400
C1548       C  0.78659409  0.98879131  0.21433228    -0.40900
C1549       C  0.75475919  0.94568780  0.21157748     0.32400
C1550       C  0.76326058  0.90883359  0.21194891     0.14100
F1551       F  0.87454647  0.96412730  0.22094153    -0.13200
F1552       F  0.71674371  0.94005382  0.20820493    -0.13800
F1553       F  0.85717052  0.03494586  0.22050452    -0.16000
F1554       F  0.73293749  0.86802251  0.20900430    -0.14600
F1555       F  0.82400430  0.86960834  0.22589317    -0.14600
F1556       F  0.84722348  0.83114031  0.19909885    -0.16000
C1557       C  0.85810873  0.39089844  0.20377012     0.14000
C1558       C  0.82730952  0.40370881  0.20650745     0.01000
C1559       C  0.78667255  0.36996981  0.20967505     0.16000
C1560       C  0.77829809  0.32489995  0.21050338     0.25400
C1561       C  0.81031159  0.31242383  0.20813209    -0.40900
C1562       C  0.84941576  0.34542943  0.20449803     0.32400
C1563       C  0.83850135  0.45260499  0.20660692     0.01100
F1564       F  0.75579416  0.38119685  0.21220135    -0.13300
F1565       F  0.88035850  0.33436298  0.20195643    -0.13800
C1566       C  0.81677451  0.46839711  0.20204742     0.16000
C1567       C  0.82104454  0.51197295  0.20295039     0.25400
C1568       C  0.84655873  0.54027455  0.20852381    -0.40900
C1569       C  0.87020857  0.52514627  0.21286110     0.32400
C1570       C  0.86638629  0.48190044  0.21188384     0.14100
F1571       F  0.78935605  0.44051671  0.19694520    -0.13200
F1572       F  0.89535147  0.55135042  0.21826163    -0.13800
F1573       F  0.79684565  0.52459460  0.19873372    -0.16000
F1574       F  0.88756709  0.46731821  0.21637553    -0.14600
F1575       F  0.89709046  0.42269652  0.20054260    -0.14600
F1576       F  0.73887450  0.29343356  0.21368453    -0.16000
C1577       C  0.82789228  0.71523409  0.15891841     0.14000
C1578       C  0.83890119  0.68670261  0.16282575     0.01000
C1579       C  0.85402501  0.65952081  0.15951532     0.16000
C1580       C  0.85566579  0.65886129  0.15234493     0.25400
C1581       C  0.84241633  0.68565365  0.14840629    -0.40900
C1582       C  0.82972676  0.71479826  0.15174417     0.32400
C1583       C  0.83450862  0.68512994  0.17036449     0.01100
F1584       F  0.86670656  0.63328665  0.16324341    -0.13300
F1585       F  0.81586199  0.74027221  0.14806676    -0.13800
C1586       C  0.80336430  0.64397703  0.17373443     0.16000
C1587       C  0.80023788  0.64240843  0.18092527     0.25400
C1588       C  0.82810589  0.68211582  0.18480749    -0.40900
C1589       C  0.85905270  0.72338033  0.18136171     0.32400
C1590       C  0.86207704  0.72476739  0.17421426     0.14100
F1591       F  0.77565686  0.60555114  0.17003970    -0.13200
F1592       F  0.88769165  0.76228515  0.18490174    -0.13800
F1593       F  0.76957731  0.60245815  0.18406714    -0.16000
F1594       F  0.89287784  0.76460940  0.17104541    -0.14600
F1595       F  0.81325629  0.74182175  0.16204547    -0.14600
F1596       F  0.86938265  0.63142601  0.14924696    -0.16000
C1597       C  0.73552995  0.07275818  0.24721726     0.14000
C1598       C  0.75000956  0.04004147  0.24785306     0.01000
C1599       C  0.78071479  0.04007706  0.24293357     0.16000
C1600       C  0.79522840  0.07081397  0.23735666     0.25400
C1601       C  0.77862699  0.10191776  0.23645067    -0.40900
C1602       C  0.74946523  0.10319818  0.24158012     0.32400
C1603       C  0.73205268  0.00503969  0.25350659     0.01100
F1604       F  0.79514906  0.00879374  0.24334329    -0.13300
F1605       F  0.73388592  0.13353895  0.24113053    -0.13800
C1606       C  0.68432552  0.97572962  0.25436894     0.16000
C1607       C  0.66713574  0.94348023  0.25975763     0.25400
C1608       C  0.69733904  0.93952809  0.26442859    -0.40900
C1609       C  0.74524935  0.96695070  0.26326223     0.32400
C1610       C  0.76231363  0.99981501  0.25795774     0.14100
F1611       F  0.65415113  0.97802917  0.24993339    -0.13200
F1612       F  0.77593507  0.96223050  0.26725532    -0.13800
F1613       F  0.62077447  0.91624796  0.26037952    -0.16000
F1614       F  0.80860687  0.02738355  0.25728468    -0.14600
F1615       F  0.70760735  0.07510861  0.25206287    -0.14600
F1616       F  0.82425151  0.06858278  0.23270737    -0.16000
C1617       C  0.60818909  0.79081740  0.34035847     0.14000
C1618       C  0.64715093  0.82219457  0.33662965     0.01000
C1619       C  0.68676080  0.85483008  0.34018501     0.16000
C1620       C  0.68709756  0.85629973  0.34739018     0.25400
C1621       C  0.64754756  0.82568520  0.35110973    -0.40900
C1622       C  0.60822222  0.79264549  0.34751723     0.32400
C1623       C  0.64597538  0.82144107  0.32903134     0.01100
F1624       F  0.72457790  0.88617048  0.33666837    -0.13300
F1625       F  0.56981474  0.76137428  0.35093670    -0.13800
C1626       C  0.61229132  0.82670762  0.32546075     0.16000
C1627       C  0.61308570  0.82921513  0.31827700     0.25400
C1628       C  0.64809996  0.82736498  0.31457683    -0.40900
C1629       C  0.68033524  0.81966641  0.31814546     0.32400
C1630       C  0.67906563  0.81646223  0.32531336     0.14100
F1631       F  0.58011739  0.83195020  0.32894772    -0.13200
F1632       F  0.71374382  0.81622402  0.31470203    -0.13800
F1633       F  0.58167259  0.83681964  0.31498901    -0.16000
F1634       F  0.71058127  0.80917947  0.32864125    -0.14600
F1635       F  0.57011990  0.75803689  0.33705645    -0.14600
F1636       F  0.72535784  0.88859257  0.35070298    -0.16000
C1637       C  0.94988963  0.85839573  0.38003563     0.14000
C1638       C  0.91871237  0.82375791  0.37560836     0.01000
C1639       C  0.93295163  0.79642316  0.37209082     0.16000
C1640       C  0.97769110  0.80338769  0.37304134     0.25400
C1641       C  0.00873037  0.83739643  0.37763498    -0.40900
C1642       C  0.99421681  0.86509284  0.38105854     0.32400
C1643       C  0.87108419  0.81588330  0.37489835     0.01100
F1644       F  0.90343641  0.76295892  0.36774461    -0.13300
F1645       F  0.02322998  0.89938609  0.38534364    -0.13800
C1646       C  0.86290654  0.84716118  0.37117680     0.16000
C1647       C  0.81971237  0.84432986  0.37145874     0.25400
C1648       C  0.78427236  0.81075780  0.37558913    -0.40900
C1649       C  0.79171722  0.77802041  0.37902083     0.32400
C1650       C  0.83466196  0.78030391  0.37862368     0.14100
F1651       F  0.89756106  0.88198896  0.36757374    -0.13200
F1652       F  0.75799355  0.74510326  0.38300157    -0.13800
F1653       F  0.81389205  0.87705884  0.36821509    -0.16000
F1654       F  0.84166161  0.74961359  0.38224504    -0.14600
F1655       F  0.93705985  0.88544481  0.38346895    -0.14600
F1656       F  0.99010524  0.77605082  0.36960926    -0.16000
C1657       C  0.38336229  0.84327813  0.38486334     0.14000
C1658       C  0.42089671  0.86867442  0.38045471     0.01000
C1659       C  0.42103500  0.90276374  0.37618605     0.16000
C1660       C  0.38218600  0.90808442  0.37583079     0.25400
C1661       C  0.34280931  0.87943064  0.37975526    -0.40900
C1662       C  0.34457591  0.84850476  0.38451068     0.32400
C1663       C  0.45485113  0.85328757  0.37936490     0.01100
F1664       F  0.45758880  0.92864793  0.37202224    -0.13300
F1665       F  0.30675773  0.81928545  0.38822659    -0.13800
C1666       C  0.45579022  0.83432976  0.37298568     0.16000
C1667       C  0.48397667  0.81526150  0.37196416     0.25400
C1668       C  0.51189334  0.81415311  0.37735650    -0.40900
C1669       C  0.51123932  0.83382114  0.38375376     0.32400
C1670       C  0.48282380  0.85303965  0.38474152     0.14100
F1671       F  0.42779018  0.83258222  0.36778001    -0.13200
F1672       F  0.53768459  0.83422042  0.38908790    -0.13800
F1673       F  0.48327520  0.79752668  0.36565716    -0.16000
F1674       F  0.48235382  0.87116628  0.39096213    -0.14600
F1675       F  0.38215731  0.80983956  0.38897719    -0.14600
F1676       F  0.38203714  0.93935470  0.37137995    -0.16000
C1677       C  0.45207103  0.84691666  0.29660437     0.14000
C1678       C  0.44034048  0.87173008  0.29197534     0.01000
C1679       C  0.47263332  0.89974263  0.28698948     0.16000
C1680       C  0.51451505  0.90030213  0.28628674     0.25400
C1681       C  0.52493700  0.87258518  0.29054463    -0.40900
C1682       C  0.49412351  0.84748988  0.29592899     0.32400
C1683       C  0.39214247  0.86239537  0.29149210     0.01100
F1684       F  0.46225441  0.92441825  0.28250714    -0.13300
F1685       F  0.50260872  0.82017673  0.30015212    -0.13800
C1686       C  0.37381985  0.88093488  0.29617822     0.16000
C1687       C  0.32849786  0.87275501  0.29535215     0.25400
C1688       C  0.30075716  0.84560764  0.28983183    -0.40900
C1689       C  0.31938472  0.82632060  0.28527798     0.32400
C1690       C  0.36436333  0.83479383  0.28609399     0.14100
F1691       F  0.40007230  0.90755840  0.30146633    -0.13200
F1692       F  0.29380885  0.79824971  0.28005625    -0.13800
F1693       F  0.31229653  0.89223448  0.29984836    -0.16000
F1694       F  0.38088288  0.81556870  0.28159839    -0.14600
F1695       F  0.42123728  0.81922040  0.30142180    -0.14600
F1696       F  0.54389998  0.92625998  0.28120140    -0.16000
C1697       C  0.85587895  0.85577215  0.29469232     0.14000
C1698       C  0.85702184  0.83376920  0.28862961     0.01000
C1699       C  0.82829040  0.83023227  0.28310733     0.16000
C1700       C  0.79821356  0.84781043  0.28368891     0.25400
C1701       C  0.79654858  0.86952173  0.28981870    -0.40900
C1702       C  0.82613158  0.87335693  0.29530208     0.32400
C1703       C  0.89036548  0.81714389  0.28805772     0.01100
F1704       F  0.82906854  0.80933515  0.27717256    -0.13300
F1705       F  0.82661315  0.89412093  0.30132153    -0.13800
C1706       C  0.89027989  0.78603223  0.29294959     0.16000
C1707       C  0.92742334  0.77803800  0.29336259     0.25400
C1708       C  0.96503937  0.80077523  0.28884748    -0.40900
C1709       C  0.96334787  0.82922836  0.28363158     0.32400
C1710       C  0.92632705  0.83731825  0.28324329     0.14100
F1711       F  0.85545432  0.76555082  0.29759018    -0.13200
F1712       F  0.00003986  0.85368275  0.27942762    -0.13800
F1713       F  0.92786323  0.75016614  0.29841861    -0.16000
F1714       F  0.92791331  0.86844798  0.27859418    -0.14600
F1715       F  0.88455042  0.86122818  0.30001570    -0.14600
F1716       F  0.77083607  0.84344290  0.27824554    -0.16000
C1717       C  0.18380624  0.82650686  0.34159411     0.14000
C1718       C  0.15553472  0.83832616  0.33781808     0.01000
C1719       C  0.12677277  0.85077910  0.34139405     0.16000
C1720       C  0.12616884  0.85098221  0.34863801     0.25400
C1721       C  0.15396296  0.83823804  0.35242089    -0.40900
C1722       C  0.18300622  0.82628144  0.34877337     0.32400
C1723       C  0.15736538  0.83865476  0.33016423     0.01100
F1724       F  0.09870506  0.86200785  0.33786875    -0.13300
F1725       F  0.21186286  0.81534023  0.35213768    -0.13800
C1726       C  0.14941311  0.79905990  0.32650300     0.16000
C1727       C  0.15196662  0.79973230  0.31928992     0.25400
C1728       C  0.16201851  0.83985969  0.31560785    -0.40900
C1729       C  0.17108231  0.87973315  0.31929612     0.32400
C1730       C  0.16897680  0.87915857  0.32648835     0.14100
F1731       F  0.13763180  0.75922027  0.32990775    -0.13200
F1732       F  0.18173096  0.91941068  0.31592182    -0.13800
F1733       F  0.14197157  0.76043111  0.31590189    -0.16000
F1734       F  0.17871433  0.91840727  0.32987313    -0.14600
F1735       F  0.21333689  0.81626407  0.33831318    -0.14600
F1736       F  0.09788691  0.86282147  0.35192637    -0.16000
C1737       C  0.04913544  0.74740272  0.25340792     0.14000
C1738       C  0.01169324  0.75506471  0.25281485     0.01000
C1739       C  0.00268219  0.77729140  0.25819688     0.16000
C1740       C  0.03051122  0.79155702  0.26408704     0.25400
C1741       C  0.06858108  0.78455042  0.26469494    -0.40900
C1742       C  0.07739570  0.76208398  0.25926576     0.32400
C1743       C  0.98181984  0.73974493  0.24660560     0.01100
F1744       F  0.96607386  0.78417597  0.25781894    -0.13300
F1745       F  0.11357369  0.75451350  0.25957633    -0.13800
C1746       C  0.95547462  0.69274327  0.24499165     0.16000
C1747       C  0.92678582  0.67820669  0.23918279     0.25400
C1748       C  0.92387758  0.71053727  0.23482629    -0.40900
C1749       C  0.95071811  0.75782675  0.23648234     0.32400
C1750       C  0.97916040  0.77210383  0.24231002     0.14100
F1751       F  0.95697850  0.66074437  0.24912304    -0.13200
F1752       F  0.94989149  0.79063107  0.23246012    -0.13800
F1753       F  0.90203539  0.63237010  0.23784657    -0.16000
F1754       F  0.00479168  0.81781171  0.24370855    -0.14600
F1755       F  0.05872419  0.72620264  0.24825416    -0.14600
F1756       F  0.01910959  0.81092499  0.26927876    -0.16000
C1757       C  0.82435720  0.04281183  0.37003440     0.14000
C1758       C  0.85832711  0.06377117  0.37513716     0.01000
C1759       C  0.85537284  0.03899106  0.38112227     0.16000
C1760       C  0.81933438  0.99392349  0.38202195     0.25400
C1761       C  0.78477737  0.97221547  0.37693838    -0.40900
C1762       C  0.78773539  0.99748997  0.37092418     0.32400
C1763       C  0.89803436  0.11100114  0.37428448     0.01100
F1764       F  0.88831864  0.05822893  0.38606908    -0.13300
F1765       F  0.75529284  0.97863727  0.36590732    -0.13800
C1766       C  0.90251957  0.14655636  0.37860470     0.16000
C1767       C  0.94416084  0.18838395  0.37891313     0.25400
C1768       C  0.98213020  0.19530764  0.37492150    -0.40900
C1769       C  0.97646328  0.16089070  0.37022069     0.32400
C1770       C  0.93473231  0.11898155  0.36992708     0.14100
F1771       F  0.86736959  0.13964490  0.38282960    -0.13200
F1772       F  0.01270399  0.16585396  0.36642931    -0.13800
F1773       F  0.94822820  0.22126905  0.38338785    -0.16000
F1774       F  0.93149771  0.08472196  0.36582958    -0.14600
F1775       F  0.82654702  0.06639447  0.36421680    -0.14600
F1776       F  0.81924341  0.97142364  0.38785747    -0.16000
C1777       C  0.42166896  0.59172946  0.38371353     0.14000
C1778       C  0.40580155  0.55770206  0.37861297     0.01000
C1779       C  0.43555326  0.56118840  0.37327327     0.16000
C1780       C  0.47954147  0.60011243  0.37274982     0.25400
C1781       C  0.49430108  0.63613126  0.37757115    -0.40900
C1782       C  0.46551303  0.63067595  0.38320030     0.32400
C1783       C  0.35596063  0.52490368  0.37801142     0.01100
F1784       F  0.42055530  0.52865517  0.36826629    -0.13300
F1785       F  0.47736408  0.66540065  0.38775582    -0.13800
C1786       C  0.32853384  0.53899113  0.37447869     0.16000
C1787       C  0.28151851  0.50870282  0.37360175     0.25400
C1788       C  0.26084709  0.46379826  0.37632360    -0.40900
C1789       C  0.28808633  0.44997741  0.38003815     0.32400
C1790       C  0.33558744  0.48035688  0.38083128     0.14100
F1791       F  0.34759754  0.58222954  0.37181965    -0.13200
F1792       F  0.26910071  0.40664360  0.38264806    -0.13800
F1793       F  0.25600626  0.52345028  0.37013309    -0.16000
F1794       F  0.36173269  0.46624667  0.38425741    -0.14600
F1795       F  0.39301905  0.58926195  0.38884188    -0.14600
F1796       F  0.50652086  0.60390606  0.36729324    -0.16000
C1797       C  0.15891038  0.04424754  0.37073091     0.14000
C1798       C  0.17357332  0.07619977  0.37614964     0.01000
C1799       C  0.19322618  0.06835084  0.38202711     0.16000
C1800       C  0.19429188  0.02739373  0.38276926     0.25400
C1801       C  0.17559567  0.99313213  0.37763576    -0.40900
C1802       C  0.15995281  0.00305300  0.37145165     0.32400
C1803       C  0.16219470  0.11376869  0.37620068     0.01100
F1804       F  0.20889334  0.09930425  0.38725975    -0.13300
F1805       F  0.14186901  0.97134537  0.36633744    -0.13800
C1806       C  0.13245530  0.11347383  0.38130348     0.16000
C1807       C  0.12157604  0.14853166  0.38163378     0.25400
C1808       C  0.14030250  0.18530470  0.37685462    -0.40900
C1809       C  0.16906007  0.18477913  0.37157625     0.32400
C1810       C  0.17992792  0.14931811  0.37126905     0.14100
F1811       F  0.11332356  0.07859150  0.38597208    -0.13200
F1812       F  0.18748366  0.21892991  0.36679187    -0.13800
F1813       F  0.09205254  0.14584409  0.38663613    -0.16000
F1814       F  0.20864681  0.15030646  0.36626436    -0.14600
F1815       F  0.13994346  0.05107792  0.36498158    -0.14600
F1816       F  0.21129256  0.02026518  0.38871287    -0.16000
C1817       C  0.18363989  0.65275675  0.37516950     0.14000
C1818       C  0.14077940  0.62289714  0.37817269     0.01000
C1819       C  0.11601994  0.64128870  0.38138149     0.16000
C1820       C  0.13324947  0.68907551  0.38135594     0.25400
C1821       C  0.17549960  0.71899723  0.37810820    -0.40900
C1822       C  0.20083000  0.70026118  0.37511889     0.32400
C1823       C  0.12219357  0.57261576  0.37771140     0.01100
F1824       F  0.07451836  0.61286041  0.38432030    -0.13300
F1825       F  0.24228295  0.72795539  0.37209916    -0.13800
C1826       C  0.12567253  0.54815995  0.38332874     0.16000
C1827       C  0.11728359  0.50311894  0.38246900     0.25400
C1828       C  0.10601289  0.48206017  0.37591031    -0.40900
C1829       C  0.09852202  0.50545627  0.37044769     0.32400
C1830       C  0.10671906  0.55035540  0.37134967     0.14100
F1831       F  0.14061353  0.56914124  0.38952280    -0.13200
F1832       F  0.08548225  0.48589368  0.36412706    -0.13800
F1833       F  0.12390122  0.48179588  0.38794921    -0.16000
F1834       F  0.10203779  0.57318393  0.36589787    -0.14600
F1835       F  0.20868971  0.63567074  0.37221312    -0.14600
F1836       F  0.10751257  0.70577814  0.38417691    -0.16000
C1837       C  0.87131182  0.11003819  0.29383037     0.14000
C1838       C  0.89488418  0.11722249  0.28757872     0.01000
C1839       C  0.87198111  0.08914427  0.28193208     0.16000
C1840       C  0.82741646  0.05163556  0.28269629     0.25400
C1841       C  0.80527651  0.04108667  0.28917981    -0.40900
C1842       C  0.82682402  0.07246183  0.29463214     0.32400
C1843       C  0.94521045  0.14834265  0.28734167     0.01100
F1844       F  0.89428206  0.09559578  0.27584099    -0.13300
F1845       F  0.80620302  0.06540387  0.30087968    -0.13800
C1846       C  0.97358298  0.13564692  0.29090724     0.16000
C1847       C  0.02119113  0.16453354  0.29095077     0.25400
C1848       C  0.04159224  0.20731159  0.28748937    -0.40900
C1849       C  0.01310503  0.21925811  0.28368771     0.32400
C1850       C  0.96516126  0.18976676  0.28360021     0.14100
F1851       F  0.95497339  0.09495784  0.29436963    -0.13200
F1852       F  0.03130252  0.26007880  0.28027879    -0.13800
F1853       F  0.04726865  0.15041994  0.29440859    -0.16000
F1854       F  0.93811538  0.20216282  0.28004005    -0.14600
F1855       F  0.89271284  0.13773829  0.29930470    -0.14600
F1856       F  0.80776957  0.02369785  0.27720729    -0.16000
C1857       C  0.47649824  0.63173977  0.29470816     0.14000
C1858       C  0.44358894  0.61203840  0.28942249     0.01000
C1859       C  0.44707554  0.63915009  0.28368496     0.16000
C1860       C  0.48268949  0.68482531  0.28317072     0.25400
C1861       C  0.51630583  0.70509506  0.28841196    -0.40900
C1862       C  0.51250336  0.67778137  0.29422413     0.32400
C1863       C  0.40456063  0.56372559  0.28981081     0.01100
F1864       F  0.41520027  0.62147780  0.27857128    -0.13300
F1865       F  0.54352268  0.69533409  0.29944750    -0.13800
C1866       C  0.36966989  0.55089755  0.29476597     0.16000
C1867       C  0.32830387  0.50864081  0.29423422     0.25400
C1868       C  0.32094738  0.47856843  0.28868998    -0.40900
C1869       C  0.35744228  0.49012167  0.28404513     0.32400
C1870       C  0.39878535  0.53212110  0.28461954     0.14100
F1871       F  0.37404744  0.58094243  0.29978560    -0.13200
F1872       F  0.35227259  0.46172666  0.27872514    -0.13800
F1873       F  0.29390664  0.49931545  0.29876983    -0.16000
F1874       F  0.43242840  0.54311513  0.27986863    -0.14600
F1875       F  0.47421292  0.60614274  0.30028552    -0.14600
F1876       F  0.48373044  0.70903954  0.27748685    -0.16000
C1877       C  0.21487510  0.13487263  0.28931261     0.14000
C1878       C  0.17760110  0.10040247  0.28558137     0.01000
C1879       C  0.15142265  0.11287821  0.28134973     0.16000
C1880       C  0.16015662  0.15834066  0.28128175     0.25400
C1881       C  0.19464535  0.19178236  0.28554337    -0.40900
C1882       C  0.22297647  0.18001367  0.28935780     0.32400
C1883       C  0.16301747  0.05116295  0.28674702     0.01100
F1884       F  0.11478137  0.08034850  0.27776353    -0.13300
F1885       F  0.25683215  0.21166853  0.29345281    -0.13800
C1886       C  0.15416871  0.03333820  0.29348518     0.16000
C1887       C  0.13977476  0.98705025  0.29470886     0.25400
C1888       C  0.13294925  0.95695926  0.28919500    -0.40900
C1889       C  0.14157551  0.97485171  0.28242659     0.32400
C1890       C  0.15657834  0.02150812  0.28122782     0.14100
F1891       F  0.15852774  0.06065422  0.29892046    -0.13200
F1892       F  0.13500865  0.94723873  0.27693614    -0.13800
F1893       F  0.13286213  0.97201139  0.30133858    -0.16000
F1894       F  0.16523801  0.03780547  0.27466974    -0.14600
F1895       F  0.24190065  0.12420756  0.29322860    -0.14600
F1896       F  0.13155876  0.16831873  0.27763977    -0.16000
C1897       C  0.11595047  0.60950841  0.28502872     0.14000
C1898       C  0.13723812  0.60126731  0.29064611     0.01000
C1899       C  0.15457076  0.63315089  0.29606394     0.16000
C1900       C  0.15316204  0.67424294  0.29567358     0.25400
C1901       C  0.13497988  0.68422605  0.28978800    -0.40900
C1902       C  0.11472445  0.65053727  0.28459994     0.32400
C1903       C  0.14731603  0.56310285  0.29032032     0.01100
F1904       F  0.17587910  0.62598985  0.30148809    -0.13300
F1905       F  0.09594205  0.65842599  0.27891560    -0.13800
C1906       C  0.18558197  0.56923782  0.28653624     0.16000
C1907       C  0.19472069  0.53312361  0.28582533     0.25400
C1908       C  0.16561710  0.48986847  0.28888049    -0.40900
C1909       C  0.12780648  0.48410658  0.29283336     0.32400
C1910       C  0.11863387  0.52051282  0.29351516     0.14100
F1911       F  0.21387975  0.61028943  0.28344424    -0.13200
F1912       F  0.09864296  0.44279771  0.29577588    -0.13800
F1913       F  0.23229980  0.54060539  0.28214561    -0.16000
F1914       F  0.08113785  0.51390652  0.29712369    -0.14600
F1915       F  0.09889400  0.57900761  0.27974704    -0.14600
F1916       F  0.17340557  0.70594585  0.30074768    -0.16000
C1917       C  0.18144824  0.36953479  0.32492375     0.14000
C1918       C  0.15684335  0.32555611  0.32801903     0.01000
C1919       C  0.13454182  0.28680009  0.32376535     0.16000
C1920       C  0.13575749  0.29160852  0.31661731     0.25400
C1921       C  0.15995240  0.33563142  0.31344493    -0.40900
C1922       C  0.18318488  0.37451882  0.31770950     0.32400
C1923       C  0.15355198  0.31983004  0.33565924     0.01100
F1924       F  0.11200721  0.24378010  0.32653394    -0.13300
F1925       F  0.20728301  0.41733905  0.31492606    -0.13800
C1926       C  0.11022139  0.29541557  0.33892674     0.16000
C1927       C  0.10699353  0.29247271  0.34613298     0.25400
C1928       C  0.14690846  0.31466240  0.35020448    -0.40900
C1929       C  0.19022638  0.33686063  0.34694728     0.32400
C1930       C  0.19354149  0.33902910  0.33975048     0.14100
F1931       F  0.07081002  0.27664345  0.33515676    -0.13200
F1932       F  0.22943042  0.35749189  0.35076296    -0.13800
F1933       F  0.06472122  0.27111898  0.34912797    -0.16000
F1934       F  0.23588031  0.36044390  0.33677692    -0.14600
F1935       F  0.20302428  0.40784999  0.32889370    -0.14600
F1936       F  0.11337064  0.25244634  0.31283045    -0.16000
C1937       C  0.29938016  0.27487077  0.24479621     0.14000
C1938       C  0.25217588  0.26030910  0.24536522     0.01000
C1939       C  0.22161475  0.22910177  0.24047521     0.16000
C1940       C  0.23805261  0.21428050  0.23498456     0.25400
C1941       C  0.28572508  0.23121043  0.23412312    -0.40900
C1942       C  0.31600432  0.26063030  0.23925083     0.32400
C1943       C  0.23507086  0.27799714  0.25101617     0.01100
F1944       F  0.17580206  0.21415984  0.24085827    -0.13300
F1945       F  0.36189916  0.27591578  0.23892070    -0.13800
C1946       C  0.25392198  0.32568683  0.25199009     0.16000
C1947       C  0.23979544  0.34255017  0.25751799     0.25400
C1948       C  0.20616034  0.31203414  0.26221207    -0.40900
C1949       C  0.18536615  0.26417907  0.26095771     0.32400
C1950       C  0.20004838  0.24748228  0.25548868     0.14100
F1951       F  0.28617652  0.35612611  0.24756252    -0.13200
F1952       F  0.15149034  0.23307511  0.26512021    -0.13800
F1953       F  0.25959977  0.38886388  0.25829018    -0.16000
F1954       F  0.18111067  0.20123909  0.25473228    -0.14600
F1955       F  0.32955876  0.30297514  0.24963967    -0.14600
F1956       F  0.20706058  0.18403903  0.23043569    -0.16000
C1957       C  0.05497584  0.45648894  0.41965809     0.14000
C1958       C  0.04413758  0.41032307  0.41882310     0.01000
C1959       C  0.01812000  0.37815241  0.42399115     0.16000
C1960       C  0.00284516  0.39155413  0.42978257     0.25400
C1961       C  0.01438777  0.43768976  0.43066932    -0.40900
C1962       C  0.04071754  0.47013346  0.42557247     0.32400
C1963       C  0.05866813  0.39512924  0.41252931     0.01100
F1964       F  0.00827390  0.33373024  0.42350896    -0.13300
F1965       F  0.05147997  0.51474751  0.42623376    -0.13800
C1966       C  0.10522486  0.41678474  0.41046502     0.16000
C1967       C  0.11833256  0.40183232  0.40456217     0.25400
C1968       C  0.08530256  0.36423199  0.40068846    -0.40900
C1969       C  0.03895209  0.34231207  0.40282459     0.32400
C1970       C  0.02576261  0.35791672  0.40860039     0.14100
F1971       F  0.13822507  0.45160051  0.41427376    -0.13200
F1972       F  0.00590916  0.30642037  0.39918491    -0.13800
F1973       F  0.16352544  0.42316003  0.40276770    -0.16000
F1974       F  0.98039459  0.33707359  0.41027879    -0.14600
F1975       F  0.07836415  0.48814212  0.41466964    -0.14600
F1976       F  0.97794231  0.35960841  0.43466354    -0.16000
C1977       C  0.95331492  0.49246278  0.49257224     0.14000
C1978       C  0.99526356  0.51741716  0.49616619     0.01000
C1979       C  0.03644895  0.53938682  0.49241513     0.16000
C1980       C  0.03615294  0.53517280  0.48525758     0.25400
C1981       C  0.99435407  0.50867508  0.48160453    -0.40900
C1982       C  0.95281142  0.48807936  0.48536680     0.32400
C1983       C  0.99680792  0.51769278  0.50383038     0.01100
F1984       F  0.07750820  0.56325139  0.49572578    -0.13300
F1985       F  0.91173690  0.46303941  0.48211553    -0.13800
C1986       C  0.97903987  0.47588374  0.50745908     0.16000
C1987       C  0.98129303  0.47555545  0.51464853     0.25400
C1988       C  0.00206115  0.51702156  0.51837028    -0.40900
C1989       C  0.02081851  0.55900971  0.51476615     0.32400
C1990       C  0.01805079  0.55935946  0.50754862     0.14100
F1991       F  0.95980446  0.43522685  0.50402409    -0.13200
F1992       F  0.03925845  0.59945604  0.51825179    -0.13800
F1993       F  0.96276612  0.43452527  0.51800885    -0.16000
F1994       F  0.03471621  0.60027970  0.50420470    -0.14600
F1995       F  0.91277987  0.47195336  0.49606115    -0.14600
F1996       F  0.07744742  0.55605536  0.48196946    -0.16000
C1997       C  0.22909963  0.77959585  0.45916514     0.14000
C1998       C  0.22502642  0.75578649  0.45304594     0.01000
C1999       C  0.25612908  0.77834970  0.44765840     0.16000
C2000       C  0.29312355  0.82316336  0.44858210     0.25400
C2001       C  0.29989978  0.84572522  0.45497891    -0.40900
C2002       C  0.26607620  0.82416138  0.46013330     0.32400
C2003       C  0.19323965  0.70557557  0.45283354     0.01100
F2004       F  0.25262149  0.75575428  0.44169651    -0.13300
F2005       F  0.27008142  0.84505776  0.46627849    -0.13800
C2006       C  0.14860160  0.68684100  0.45011815     0.16000
C2007       C  0.11713293  0.63955890  0.45080326     0.25400
C2008       C  0.12991121  0.61072973  0.45430435    -0.40900
C2009       C  0.17543935  0.62952906  0.45673301     0.32400
C2010       C  0.20675530  0.67647364  0.45598577     0.14100
F2011       F  0.13501421  0.71460388  0.44706588    -0.13200
F2012       F  0.18957731  0.60251961  0.45990504    -0.13800
F2013       F  0.07353773  0.62251942  0.44839607    -0.16000
F2014       F  0.25006697  0.69399294  0.45854995    -0.14600
F2015       F  0.19889011  0.75830344  0.46439891    -0.14600
F2016       F  0.32431506  0.84261483  0.44341781    -0.16000
C2017       C  0.78666216  0.28500825  0.46409439     0.14000
C2018       C  0.77353048  0.25091813  0.45900912     0.01000
C2019       C  0.80483908  0.25722739  0.45374594     0.16000
C2020       C  0.84648960  0.29877081  0.45315394     0.25400
C2021       C  0.85775995  0.33503012  0.45782310    -0.40900
C2022       C  0.82861392  0.32674070  0.46353215     0.32400
C2023       C  0.72491478  0.21306329  0.45843449     0.01100
F2024       F  0.79352555  0.22423351  0.44888427    -0.13300
F2025       F  0.83833699  0.36054964  0.46818676    -0.13800
C2026       C  0.69774808  0.21430942  0.45302402     0.16000
C2027       C  0.65200532  0.17931476  0.45224198     0.25400
C2028       C  0.63204032  0.14142358  0.45682774    -0.40900
C2029       C  0.65938495  0.14052724  0.46232519     0.32400
C2030       C  0.70534636  0.17615417  0.46312388     0.14100
F2031       F  0.71559918  0.25003816  0.44849036    -0.13200
F2032       F  0.64213098  0.10484622  0.46685764    -0.13800
F2033       F  0.62725160  0.18317854  0.44699797    -0.16000
F2034       F  0.73104770  0.17411312  0.46838022    -0.14600
F2035       F  0.75707037  0.27957009  0.46925630    -0.14600
F2036       F  0.87446160  0.30465248  0.44772919    -0.16000
C2037       C  0.34679366  0.90729477  0.42382437     0.14000
C2038       C  0.33593347  0.93755721  0.42035679     0.01000
C2039       C  0.35777445  0.98387155  0.42244141     0.16000
C2040       C  0.38930134  0.99952669  0.42794310     0.25400
C2041       C  0.39960552  0.96904926  0.43155872    -0.40900
C2042       C  0.37816290  0.92272289  0.42933800     0.32400
C2043       C  0.30266780  0.92097485  0.41447242     0.01100
F2044       F  0.34892628  0.01422368  0.41908284    -0.13300
F2045       F  0.38745020  0.89202425  0.43248397    -0.13800
C2046       C  0.26096993  0.92157157  0.41480810     0.16000
C2047       C  0.22990241  0.90597210  0.40923336     0.25400
C2048       C  0.23970203  0.88911091  0.40320266    -0.40900
C2049       C  0.28169724  0.88883873  0.40290217     0.32400
C2050       C  0.31266719  0.90454747  0.40845192     0.14100
F2051       F  0.25002962  0.93671673  0.42058691    -0.13200
F2052       F  0.29394019  0.87516406  0.39711201    -0.13800
F2053       F  0.18993531  0.90680640  0.40978163    -0.16000
F2054       F  0.35327548  0.90498191  0.40786293    -0.14600
F2055       F  0.32625689  0.86232661  0.42194389    -0.14600
F2056       F  0.40915625  0.04453934  0.42976665    -0.16000
C2057       C  0.48801567  0.95488542  0.50851630     0.14000
C2058       C  0.48480259  0.98900992  0.50467413     0.01000
C2059       C  0.47717288  0.02112658  0.50820513     0.16000
C2060       C  0.47569435  0.02107490  0.51540607     0.25400
C2061       C  0.48146733  0.98861632  0.51927706    -0.40900
C2062       C  0.48594026  0.95444770  0.51574498     0.32400
C2063       C  0.48813383  0.99068313  0.49699902     0.01100
F2064       F  0.47103666  0.05268050  0.50466597    -0.13300
F2065       F  0.49099640  0.92222139  0.51928270    -0.13800
C2066       C  0.45874318  0.95168986  0.49310572     0.16000
C2067       C  0.45993764  0.95343353  0.48591638     0.25400
C2068       C  0.49014668  0.99458573  0.48237089    -0.40900
C2069       C  0.52002553  0.03364282  0.48625586     0.32400
C2070       C  0.51929781  0.03158299  0.49350159     0.14100
F2071       F  0.42746750  0.91205279  0.49626373    -0.13200
F2072       F  0.55054870  0.07341926  0.48305965    -0.13800
F2073       F  0.43010450  0.91476471  0.48242969    -0.16000
F2074       F  0.54946082  0.06942923  0.49711177    -0.14600
F2075       F  0.49513813  0.92308765  0.50529147    -0.14600
F2076       F  0.46903734  0.05327245  0.51860337    -0.16000
C2077       C  0.27887910  0.82294655  0.53933352     0.14000
C2078       C  0.25823760  0.78887941  0.54443688     0.01000
C2079       C  0.28420757  0.79037463  0.55020685     0.16000
C2080       C  0.32979582  0.82563829  0.55094892     0.25400
C2081       C  0.35090536  0.86053033  0.54589014    -0.40900
C2082       C  0.32473668  0.85851334  0.54004490     0.32400
C2083       C  0.21024305  0.75037054  0.54374924     0.01100
F2084       F  0.26567389  0.75668870  0.55507084    -0.13300
F2085       F  0.34322658  0.89095892  0.53501509    -0.13800
C2086       C  0.19844897  0.71777376  0.53847096     0.16000
C2087       C  0.15653114  0.67616608  0.53870659     0.25400
C2088       C  0.12625834  0.66634619  0.54429566    -0.40900
C2089       C  0.13629614  0.70079084  0.54922215     0.32400
C2090       C  0.17786044  0.74256239  0.54892725     0.14100
F2091       F  0.22927791  0.72433061  0.53344475    -0.13200
F2092       F  0.10701900  0.69291133  0.55454763    -0.13800
F2093       F  0.14792834  0.64364058  0.53387121    -0.16000
F2094       F  0.18784029  0.77432931  0.55394472    -0.14600
F2095       F  0.25445274  0.82196095  0.53368630    -0.14600
F2096       F  0.35330421  0.82471451  0.55659750    -0.16000
C2097       C  0.76254388  0.20612183  0.54030631     0.14000
C2098       C  0.76543882  0.23796224  0.54529357     0.01000
C2099       C  0.73088429  0.22298414  0.55035926     0.16000
C2100       C  0.69283666  0.17836362  0.55016315     0.25400
C2101       C  0.68788434  0.14796943  0.54480843    -0.40900
C2102       C  0.72385189  0.16179899  0.54000855     0.32400
C2103       C  0.80093195  0.28779023  0.54473401     0.01100
F2104       F  0.73172900  0.25274043  0.55516361    -0.13300
F2105       F  0.72068613  0.13302807  0.53486012    -0.13800
C2106       C  0.80623213  0.31132873  0.53849621     0.16000
C2107       C  0.83640734  0.35872993  0.53800074     0.25400
C2108       C  0.86160330  0.38457583  0.54379577    -0.40900
C2109       C  0.85677604  0.36083772  0.55003474     0.32400
C2110       C  0.82709603  0.31296608  0.55047250     0.14100
F2111       F  0.78071116  0.28876282  0.53288653    -0.13200
F2112       F  0.88008249  0.38384227  0.55576473    -0.13800
F2113       F  0.84030066  0.37913723  0.53179000    -0.16000
F2114       F  0.82386714  0.29119497  0.55652870    -0.14600
F2115       F  0.79632349  0.21859471  0.53553194    -0.14600
F2116       F  0.65855692  0.16671566  0.55481644    -0.16000
C2117       C  0.76504762  0.47149562  0.45429650     0.14000
C2118       C  0.76967215  0.50806015  0.45835668     0.01000
C2119       C  0.81133677  0.53569248  0.46185047     0.16000
C2120       C  0.84835252  0.52730855  0.46116377     0.25400
C2121       C  0.84424437  0.49143728  0.45688871    -0.40900
C2122       C  0.80172736  0.46321543  0.45356652     0.32400
C2123       C  0.73052576  0.51679481  0.45876854     0.01100
F2124       F  0.81611278  0.57077928  0.46589617    -0.13300
F2125       F  0.79530548  0.42705364  0.44962689    -0.13800
C2126       C  0.69120594  0.48689429  0.46259075     0.16000
C2127       C  0.65059796  0.48882427  0.46192881     0.25400
C2128       C  0.64826374  0.52000214  0.45729072    -0.40900
C2129       C  0.68835713  0.55146968  0.45371038     0.32400
C2130       C  0.72931480  0.55011129  0.45449452     0.14100
F2131       F  0.69124798  0.45368038  0.46660974    -0.13200
F2132       F  0.68723933  0.58202380  0.44921302    -0.13800
F2133       F  0.61226588  0.45704214  0.46530508    -0.16000
F2134       F  0.76683162  0.57906475  0.45070430    -0.14600
F2135       F  0.72490388  0.44404709  0.45093321    -0.14600
F2136       F  0.88845527  0.55507808  0.46450235    -0.16000
C2137       C  0.30440313  0.47901719  0.44843852     0.14000
C2138       C  0.27983154  0.48730464  0.45354252     0.01000
C2139       C  0.30346242  0.51382494  0.45929622     0.16000
C2140       C  0.35062078  0.53092312  0.46006236     0.25400
C2141       C  0.37564838  0.52178700  0.45506710    -0.40900
C2142       C  0.35187713  0.49588394  0.44919734     0.32400
C2143       C  0.22969485  0.46970335  0.45295744     0.01100
F2144       F  0.28074311  0.52374389  0.46417763    -0.13300
F2145       F  0.37424868  0.48639381  0.44421249    -0.13800
C2146       C  0.19988195  0.44060375  0.45810870     0.16000
C2147       C  0.15505814  0.43317329  0.45864984     0.25400
C2148       C  0.13914075  0.45450836  0.45400590    -0.40900
C2149       C  0.16766760  0.47999468  0.44844225     0.32400
C2150       C  0.21268490  0.48765993  0.44794760     0.14100
F2151       F  0.21535785  0.42194934  0.46290480    -0.13200
F2152       F  0.15394011  0.50166806  0.44390025    -0.13800
F2153       F  0.12823680  0.40744264  0.46397505    -0.16000
F2154       F  0.24101493  0.51621183  0.44296105    -0.14600
F2155       F  0.28226883  0.45393069  0.44278335    -0.14600
F2156       F  0.37144919  0.55642921  0.46575105    -0.16000
C2157       C  0.44227356  0.27766452  0.46042625     0.14000
C2158       C  0.47471775  0.26509084  0.45840107     0.01000
C2159       C  0.51628151  0.29845994  0.45539421     0.16000
C2160       C  0.52514622  0.34355392  0.45434827     0.25400
C2161       C  0.49279278  0.35645587  0.45637494    -0.40900
C2162       C  0.45140966  0.32309932  0.45948966     0.32400
C2163       C  0.46474337  0.21673737  0.45896188     0.01100
F2164       F  0.54789443  0.28694844  0.45330937    -0.13300
F2165       F  0.41901202  0.33399172  0.46136957    -0.13800
C2166       C  0.43757178  0.18452963  0.45393266     0.16000
C2167       C  0.43621740  0.14214840  0.45347899     0.25400
C2168       C  0.46198689  0.13111300  0.45806554    -0.40900
C2169       C  0.48531240  0.16149336  0.46354620     0.32400
C2170       C  0.48707467  0.20421610  0.46393637     0.14100
F2171       F  0.41516187  0.19558647  0.44912979    -0.13200
F2172       F  0.51001765  0.15190436  0.46813826    -0.13800
F2173       F  0.41193314  0.11300199  0.44828009    -0.16000
F2174       F  0.51288009  0.23456094  0.46892159    -0.14600
F2175       F  0.40154894  0.24577300  0.46323034    -0.14600
F2176       F  0.56566451  0.37475194  0.45139663    -0.16000
C2177       C  0.52324015  0.84012520  0.44934586     0.14000
C2178       C  0.50991664  0.80255912  0.45383088     0.01000
C2179       C  0.47795447  0.79459953  0.45905168     0.16000
C2180       C  0.45981626  0.82369947  0.45987013     0.25400
C2181       C  0.47336059  0.86208952  0.45548206    -0.40900
C2182       C  0.50522667  0.86982306  0.45016932     0.32400
C2183       C  0.52763316  0.77012583  0.45315864     0.01100
F2184       F  0.46373026  0.75789948  0.46335238    -0.13300
F2185       F  0.51976380  0.90653930  0.44587234    -0.13800
C2186       C  0.55293487  0.76579258  0.45859310     0.16000
C2187       C  0.55835261  0.72711289  0.45906724     0.25400
C2188       C  0.53808380  0.69164611  0.45414110    -0.40900
C2189       C  0.51669953  0.69839361  0.44832524     0.32400
C2190       C  0.51158592  0.73740978  0.44784911     0.14100
F2191       F  0.56926750  0.79735811  0.46374159    -0.13200
F2192       F  0.49653820  0.66520389  0.44345033    -0.13800
F2193       F  0.58084152  0.72297250  0.46460641    -0.16000
F2194       F  0.48699350  0.74093224  0.44255050    -0.14600
F2195       F  0.55430836  0.84852788  0.44427364    -0.14600
F2196       F  0.42851766  0.81367030  0.46497544    -0.16000
C2197       C  0.60186182  0.62646617  0.42130606     0.14000
C2198       C  0.57745022  0.64900551  0.41947016     0.01000
C2199       C  0.53813409  0.63978771  0.42329449     0.16000
C2200       C  0.52276380  0.60788923  0.42870039     0.25400
C2201       C  0.54739481  0.58555668  0.43062411    -0.40900
C2202       C  0.58726818  0.59540354  0.42684350     0.32400
C2203       C  0.59148364  0.68046429  0.41340058     0.01100
F2204       F  0.51479779  0.66231030  0.42186237    -0.13300
F2205       F  0.61273870  0.57553934  0.42853380    -0.13800
C2206       C  0.55902869  0.67362755  0.40826512     0.16000
C2207       C  0.57152680  0.70274569  0.40253610     0.25400
C2208       C  0.61718723  0.73892238  0.40167781    -0.40900
C2209       C  0.64981971  0.74572273  0.40682237     0.32400
C2210       C  0.63699903  0.71706842  0.41264130     0.14100
F2211       F  0.51523658  0.63765652  0.40867698    -0.13200
F2212       F  0.69421328  0.78032202  0.40626893    -0.13800
F2213       F  0.53895072  0.69434367  0.39772301    -0.16000
F2214       F  0.66905766  0.72554109  0.41757243    -0.14600
F2215       F  0.63956139  0.63390681  0.41766922    -0.14600
F2216       F  0.48360454  0.59906510  0.43204159    -0.16000
C2217       C  0.16914730  0.46379868  0.53744485     0.14000
C2218       C  0.20902401  0.48537539  0.54154689     0.01000
C2219       C  0.21419985  0.51945161  0.54622593     0.16000
C2220       C  0.17949930  0.53062640  0.54702137     0.25400
C2221       C  0.13830503  0.50762393  0.54318723    -0.40900
C2222       C  0.13393231  0.47474987  0.53826408     0.32400
C2223       C  0.24530101  0.47227234  0.54127400     0.01100
F2224       F  0.25309875  0.54183075  0.55008567    -0.13300
F2225       F  0.09490592  0.45187226  0.53445438    -0.13800
C2226       C  0.27909105  0.48983326  0.53610131     0.16000
C2227       C  0.32000593  0.48827626  0.53689380     0.25400
C2228       C  0.32772149  0.46923294  0.54291221    -0.40900
C2229       C  0.29143600  0.44716299  0.54768685     0.32400
C2230       C  0.25080368  0.44893201  0.54688918     0.14100
F2231       F  0.27417134  0.51191415  0.53057156    -0.13200
F2232       F  0.29634282  0.42616699  0.55335693    -0.13800
F2233       F  0.35362826  0.50928375  0.53208423    -0.16000
F2234       F  0.21799058  0.43056790  0.55186026    -0.14600
F2235       F  0.16375918  0.43125519  0.53280676    -0.14600
F2236       F  0.18645965  0.56432353  0.55154844    -0.16000
C2237       C  0.78946210  0.56812966  0.54384768     0.14000
C2238       C  0.75472530  0.53266393  0.54782580     0.01000
C2239       C  0.76571225  0.50461915  0.55187883     0.16000
C2240       C  0.80969040  0.50955290  0.55151181     0.25400
C2241       C  0.84289403  0.54198860  0.54698614    -0.40900
C2242       C  0.83305115  0.57240636  0.54336778     0.32400
C2243       C  0.70594450  0.52004035  0.54681174     0.01100
F2244       F  0.73266412  0.46954766  0.55566310    -0.13300
F2245       F  0.86487967  0.60462007  0.53907802    -0.13800
C2246       C  0.68686778  0.50827163  0.54018521     0.16000
C2247       C  0.64037104  0.49314668  0.53909691     0.25400
C2248       C  0.61115022  0.48840371  0.54465810    -0.40900
C2249       C  0.63064719  0.50139611  0.55129876     0.32400
C2250       C  0.67762981  0.51691635  0.55235806     0.14100
F2251       F  0.71302989  0.50968396  0.53475058    -0.13200
F2252       F  0.60428226  0.49827824  0.55679935    -0.13800
F2253       F  0.62415519  0.48266884  0.53254773    -0.16000
F2254       F  0.69543614  0.52862121  0.55880351    -0.14600
F2255       F  0.78008838  0.59657646  0.54005082    -0.14600
F2256       F  0.81810356  0.47930415  0.55499991    -0.16000
C2257       C  0.53906525  0.80872767  0.54854763     0.14000
C2258       C  0.51704559  0.78028179  0.54287787     0.01000
C2259       C  0.49927165  0.79602680  0.53764994     0.16000
C2260       C  0.50029245  0.83820403  0.53835481     0.25400
C2261       C  0.51848844  0.86481315  0.54437344    -0.40900
C2262       C  0.53979518  0.85054634  0.54930343     0.32400
C2263       C  0.50583250  0.73161682  0.54309222     0.01100
F2264       F  0.47764101  0.76887656  0.53213742    -0.13300
F2265       F  0.55913187  0.87581292  0.55506704    -0.13800
C2266       C  0.47126685  0.70117089  0.54759934     0.16000
C2267       C  0.46127628  0.65560065  0.54824295     0.25400
C2268       C  0.48568817  0.63923474  0.54436365    -0.40900
C2269       C  0.51999174  0.66977257  0.53974331     0.32400
C2270       C  0.52993841  0.71565792  0.53911822     0.14100
F2271       F  0.44716560  0.71583346  0.55142182    -0.13200
F2272       F  0.54506240  0.65581084  0.53602428    -0.13800
F2273       F  0.42728123  0.62742679  0.55264872    -0.16000
F2274       F  0.56385355  0.74480255  0.53478404    -0.14600
F2275       F  0.55719683  0.79442475  0.55359396    -0.14600
F2276       F  0.47975208  0.85076572  0.53344326    -0.16000
C2277       C  0.48531375  0.26964173  0.55231577     0.14000
C2278       C  0.48116229  0.24154507  0.54671781     0.01000
C2279       C  0.46260054  0.24635432  0.54050077     0.16000
C2280       C  0.45132778  0.28094945  0.53970730     0.25400
C2281       C  0.45945157  0.31224354  0.54509101    -0.40900
C2282       C  0.47446558  0.30471973  0.55152147     0.32400
C2283       C  0.49946474  0.20965819  0.54703852     0.01100
F2284       F  0.45741847  0.21871089  0.53507252    -0.13300
F2285       F  0.48211878  0.33333663  0.55689681    -0.13800
C2286       C  0.47654102  0.16825071  0.55076465     0.16000
C2287       C  0.48985264  0.13488343  0.55006136     0.25400
C2288       C  0.52616156  0.14270846  0.54559096    -0.40900
C2289       C  0.55108080  0.18573578  0.54227924     0.32400
C2290       C  0.53784633  0.21886836  0.54300627     0.14100
F2291       F  0.43989866  0.15927397  0.55479276    -0.13200
F2292       F  0.58811522  0.19561866  0.53827236    -0.13800
F2293       F  0.46565717  0.09410851  0.55343635    -0.16000
F2294       F  0.56175862  0.25965042  0.53961352    -0.14600
F2295       F  0.50287546  0.26521012  0.55839304    -0.14600
F2296       F  0.43461181  0.28512801  0.53353588    -0.16000
C2297       C  0.52794598  0.51327351  0.50736290     0.14000
C2298       C  0.48639850  0.49721018  0.50373009     0.01000
C2299       C  0.44599877  0.48621595  0.50745153     0.16000
C2300       C  0.44716298  0.49093862  0.51464253     0.25400
C2301       C  0.48846314  0.50547723  0.51827906    -0.40900
C2302       C  0.52891449  0.51707993  0.51454483     0.32400
C2303       C  0.48586788  0.49515587  0.49605088     0.01100
F2304       F  0.40501074  0.46950679  0.50413561    -0.13300
F2305       F  0.56962823  0.53201634  0.51787344    -0.13800
C2306       C  0.50424709  0.47157177  0.49240927     0.16000
C2307       C  0.50540093  0.47224607  0.48515717     0.25400
C2308       C  0.48770557  0.49608972  0.48140962    -0.40900
C2309       C  0.46906224  0.51925968  0.48512460     0.32400
C2310       C  0.46843454  0.51892370  0.49230283     0.14100
F2311       F  0.52081953  0.44761572  0.49586763    -0.13200
F2312       F  0.45247333  0.54384462  0.48184760    -0.13800
F2313       F  0.52382203  0.44964485  0.48183066    -0.16000
F2314       F  0.45219880  0.54357984  0.49560985    -0.14600
F2315       F  0.56788091  0.52590777  0.50395077    -0.14600
F2316       F  0.40740445  0.47880063  0.51807224    -0.16000
C2317       C  0.11865327  0.68408276  0.90722597     0.14000
C2318       C  0.08493912  0.68326551  0.91162303     0.01000
C2319       C  0.06656019  0.71186544  0.91010006     0.16000
C2320       C  0.08146742  0.74071998  0.90431023     0.25400
C2321       C  0.11543829  0.74188717  0.89986655    -0.40900
C2322       C  0.13392573  0.71313233  0.90144035     0.32400
C2323       C  0.06973880  0.65348095  0.91788399     0.01100
F2324       F  0.03456391  0.71252072  0.91430707    -0.13300
F2325       F  0.16661438  0.71265727  0.89737513    -0.13800
C2326       C  0.10200621  0.65816348  0.92291344     0.16000
C2327       C  0.08802299  0.63057314  0.92884331     0.25400
C2328       C  0.04117788  0.59764265  0.92992210    -0.40900
C2329       C  0.00876478  0.59359487  0.92490907     0.32400
C2330       C  0.02295171  0.62101436  0.91895133     0.14100
F2331       F  0.14711685  0.69060608  0.92218129    -0.13200
F2332       F  0.96320622  0.56288088  0.92572427    -0.13800
F2333       F  0.12040597  0.63730391  0.93362122    -0.16000
F2334       F  0.99090571  0.61544434  0.91417531    -0.14600
F2335       F  0.13628284  0.65601439  0.90847106    -0.14600
F2336       F  0.06230873  0.76746232  0.90309050    -0.16000
C2337       C  0.21798901  0.84748605  0.83844152     0.14000
C2338       C  0.17610871  0.83250313  0.83495397     0.01000
C2339       C  0.13738523  0.82620164  0.83870272     0.16000
C2340       C  0.14001291  0.83271294  0.84584623     0.25400
C2341       C  0.18118770  0.84490384  0.84938424    -0.40900
C2342       C  0.22043840  0.85326923  0.84558581     0.32400
C2343       C  0.17285486  0.82340168  0.82742836     0.01100
F2344       F  0.09629602  0.81143655  0.83550179    -0.13300
F2345       F  0.26109400  0.86617935  0.84881537    -0.13800
C2346       C  0.18633171  0.79321658  0.82459494     0.16000
C2347       C  0.18403422  0.78560476  0.81746140     0.25400
C2348       C  0.16734678  0.80734730  0.81305386    -0.40900
C2349       C  0.15320256  0.83698277  0.81595639     0.32400
C2350       C  0.15644763  0.84522023  0.82302328     0.14100
F2351       F  0.20119288  0.77062798  0.82875195    -0.13200
F2352       F  0.13750389  0.85954609  0.81194712    -0.13800
F2353       F  0.19759355  0.75662876  0.81489275    -0.16000
F2354       F  0.14479111  0.87580919  0.82553844    -0.14600
F2355       F  0.25654016  0.85618851  0.83492781    -0.14600
F2356       F  0.10137060  0.82380552  0.84934973    -0.16000
C2357       C  0.50151549  0.85567889  0.79366654     0.14000
C2358       C  0.45558459  0.82034472  0.79278693     0.01000
C2359       C  0.44648244  0.77546277  0.79132688     0.16000
C2360       C  0.48265306  0.76635358  0.79052557     0.25400
C2361       C  0.52861709  0.80183066  0.79125993    -0.40900
C2362       C  0.53777608  0.84639265  0.79295822     0.32400
C2363       C  0.41705540  0.83025571  0.79270422     0.01100
F2364       F  0.40251722  0.74085102  0.79033223    -0.13300
F2365       F  0.58192494  0.88144167  0.79352171    -0.13800
C2366       C  0.41427271  0.85741702  0.78740609     0.16000
C2367       C  0.37318865  0.85781331  0.78625026     0.25400
C2368       C  0.33430070  0.83156402  0.79044727    -0.40900
C2369       C  0.33881335  0.80816188  0.79617606     0.32400
C2370       C  0.37972888  0.80724019  0.79725298     0.14100
F2371       F  0.45005497  0.88049173  0.78298847    -0.13200
F2372       F  0.30228753  0.78248369  0.80035534    -0.13800
F2373       F  0.37062183  0.88171841  0.78076906    -0.16000
F2374       F  0.38196300  0.78150436  0.80249492    -0.14600
F2375       F  0.51124092  0.89931811  0.79504945    -0.14600
F2376       F  0.47281549  0.72292950  0.78892718    -0.16000
C2377       C  0.00092080  0.85119922  0.78429509     0.14000
C2378       C  0.96742764  0.80431239  0.78371430     0.01000
C2379       C  0.98159277  0.77121838  0.78357395     0.16000
C2380       C  0.02827970  0.78464041  0.78433091     0.25400
C2381       C  0.06121498  0.83124487  0.78530982    -0.40900
C2382       C  0.04741626  0.86449256  0.78512322     0.32400
C2383       C  0.91779481  0.78996670  0.78411971     0.01100
F2384       F  0.94994082  0.72579368  0.78296493    -0.13300
F2385       F  0.07897444  0.90979376  0.78596095    -0.13800
C2386       C  0.89712011  0.80455419  0.77917372     0.16000
C2387       C  0.85214273  0.79640019  0.78014846     0.25400
C2388       C  0.82712818  0.77384232  0.78614884    -0.40900
C2389       C  0.84725452  0.75694408  0.79088106     0.32400
C2390       C  0.89205388  0.76509639  0.78988165     0.14100
F2391       F  0.92121981  0.82833023  0.77352760    -0.13200
F2392       F  0.82451477  0.73439078  0.79668436    -0.13800
F2393       F  0.83457959  0.81358190  0.77545152    -0.16000
F2394       F  0.91151901  0.75139088  0.79480852    -0.14600
F2395       F  0.98828406  0.88388359  0.78450329    -0.14600
F2396       F  0.04092628  0.75195530  0.78456112    -0.16000
C2397       C  0.62773313  0.98782072  0.92059010     0.14000
C2398       C  0.60993611  0.94041127  0.91951140     0.01000
C2399       C  0.57618409  0.90883599  0.92402971     0.16000
C2400       C  0.56001005  0.92414223  0.92945291     0.25400
C2401       C  0.57880475  0.97169027  0.93073461    -0.40900
C2402       C  0.61278886  0.00336703  0.92618030     0.32400
C2403       C  0.62503416  0.92361640  0.91353950     0.01100
F2404       F  0.55914469  0.86284750  0.92325027    -0.13300
F2405       F  0.63180154  0.04947011  0.92710745    -0.13800
C2406       C  0.67196444  0.93906257  0.91238090     0.16000
C2407       C  0.68585449  0.92408834  0.90660993     0.25400
C2408       C  0.65290197  0.89263879  0.90192463    -0.40900
C2409       C  0.60582394  0.87585438  0.90329448     0.32400
C2410       C  0.59219676  0.89172112  0.90895204     0.14100
F2411       F  0.70443184  0.96844465  0.91687059    -0.13200
F2412       F  0.57256121  0.84443454  0.89911223    -0.13800
F2413       F  0.73162747  0.94078135  0.90561677    -0.16000
F2414       F  0.54665209  0.87671391  0.90983488    -0.14600
F2415       F  0.65911730  0.01917016  0.91615634    -0.14600
F2416       F  0.52571076  0.89198224  0.93343086    -0.16000
C2417       C  0.36426207  0.85339253  0.88378337     0.14000
C2418       C  0.39253502  0.85296272  0.87846540     0.01000
C2419       C  0.37231286  0.83341757  0.87211473     0.16000
C2420       C  0.32546643  0.81638333  0.87095742     0.25400
C2421       C  0.29668385  0.81753392  0.87618596    -0.40900
C2422       C  0.31678748  0.83587812  0.88266418     0.32400
C2423       C  0.44296635  0.87153305  0.87937404     0.01100
F2424       F  0.39805772  0.83008299  0.86699224    -0.13300
F2425       F  0.29078927  0.83718950  0.88791513    -0.13800
C2426       C  0.45945122  0.85208272  0.88423818     0.16000
C2427       C  0.50506367  0.86114844  0.88389809     0.25400
C2428       C  0.53473975  0.88910961  0.87859912    -0.40900
C2429       C  0.51942057  0.91197158  0.87416211     0.32400
C2430       C  0.47416497  0.90363023  0.87459712     0.14100
F2431       F  0.43026023  0.82063670  0.88887030    -0.13200
F2432       F  0.54729463  0.94005241  0.86909855    -0.13800
F2433       F  0.51828239  0.83814346  0.88825217    -0.16000
F2434       F  0.45968292  0.92431518  0.86999557    -0.14600
F2435       F  0.38272011  0.87143717  0.89002021    -0.14600
F2436       F  0.30867331  0.79876588  0.86463210    -0.16000
C2437       C  0.87434448  0.81239597  0.88028864     0.14000
C2438       C  0.88968883  0.81078340  0.87360161     0.01000
C2439       C  0.86689584  0.81735723  0.86796606     0.16000
C2440       C  0.83094116  0.82695134  0.86901539     0.25400
C2441       C  0.81598269  0.82895213  0.87573043    -0.40900
C2442       C  0.83746210  0.82009616  0.88132812     0.32400
C2443       C  0.93075847  0.80458488  0.87266988     0.01100
F2444       F  0.87941262  0.81460280  0.86141999    -0.13300
F2445       F  0.82327545  0.81934218  0.88789923    -0.13800
C2446       C  0.93480282  0.77090775  0.87650208     0.16000
C2447       C  0.97703954  0.77182024  0.87692049     0.25400
C2448       C  0.01565725  0.80493709  0.87324786    -0.40900
C2449       C  0.01012094  0.83481326  0.86874063     0.32400
C2450       C  0.96848975  0.83539648  0.86856920     0.14100
F2451       F  0.89836456  0.73835621  0.88013046    -0.13200
F2452       F  0.04647716  0.86679526  0.86503368    -0.13800
F2453       F  0.98081597  0.74165550  0.88118293    -0.16000
F2454       F  0.96670991  0.86887343  0.86485857    -0.14600
F2455       F  0.89633998  0.80846767  0.88591083    -0.14600
F2456       F  0.81177038  0.83552569  0.86344843    -0.16000
C2457       C  0.72699465  0.85660072  0.84000079     0.14000
C2458       C  0.68957555  0.81834999  0.83685455     0.01000
C2459       C  0.65363250  0.78574462  0.84095528     0.16000
C2460       C  0.65307415  0.79294227  0.84800080     0.25400
C2461       C  0.68861159  0.83305211  0.85111214    -0.40900
C2462       C  0.72658802  0.86387259  0.84710025     0.32400
C2463       C  0.68631133  0.81359841  0.82927854     0.01100
F2464       F  0.61825312  0.74740836  0.83808829    -0.13300
F2465       F  0.76164537  0.90255191  0.84993368    -0.13800
C2466       C  0.72116029  0.81204120  0.82551917     0.16000
C2467       C  0.71847199  0.80883638  0.81835866     0.25400
C2468       C  0.68054337  0.80655915  0.81482830    -0.40900
C2469       C  0.64502761  0.80684889  0.81859159     0.32400
C2470       C  0.64809320  0.81076710  0.82576874     0.14100
F2471       F  0.75760163  0.81317952  0.82878723    -0.13200
F2472       F  0.60853992  0.80550562  0.81531337    -0.13800
F2473       F  0.75289413  0.80750090  0.81486653    -0.16000
F2474       F  0.61443560  0.81327849  0.82928757    -0.14600
F2475       F  0.76251969  0.88835714  0.83614012    -0.14600
F2476       F  0.61681133  0.76111812  0.85174570    -0.16000
C2477       C  0.15907064  0.10026348  0.79104665     0.14000
C2478       C  0.19658664  0.11105910  0.78672852     0.01000
C2479       C  0.21656959  0.15227501  0.78292372     0.16000
C2480       C  0.20024990  0.18337026  0.78368335     0.25400
C2481       C  0.16359910  0.17323080  0.78823940    -0.40900
C2482       C  0.14264207  0.13079863  0.79178526     0.32400
C2483       C  0.21371544  0.07822743  0.78634774     0.01100
F2484       F  0.25238195  0.16275412  0.77861885    -0.13300
F2485       F  0.10573728  0.11845532  0.79595317    -0.13800
C2486       C  0.20070258  0.04733690  0.78083287     0.16000
C2487       C  0.20460163  0.00776972  0.78138032     0.25400
C2488       C  0.22151829  0.99849708  0.78747758    -0.40900
C2489       C  0.23848247  0.03190154  0.79273586     0.32400
C2490       C  0.23447928  0.07135918  0.79216959     0.14100
F2491       F  0.17996651  0.05309767  0.77520526    -0.13200
F2492       F  0.25620351  0.02501124  0.79862238    -0.13800
F2493       F  0.18711605  0.97628373  0.77624507    -0.16000
F2494       F  0.24747742  0.10112970  0.79754362    -0.14600
F2495       F  0.13816775  0.05973914  0.79456237    -0.14600
F2496       F  0.22123679  0.22384234  0.78016530    -0.16000
C2497       C  0.12249128  0.49110991  0.78430847     0.14000
C2498       C  0.14225324  0.52130718  0.78987786     0.01000
C2499       C  0.15819588  0.50733864  0.79558108     0.16000
C2500       C  0.15891972  0.46581330  0.79539380     0.25400
C2501       C  0.14381791  0.43792620  0.78946767    -0.40900
C2502       C  0.12267382  0.44949541  0.78414151     0.32400
C2503       C  0.15288721  0.56970083  0.78921890     0.01100
F2504       F  0.17686595  0.53584859  0.80105924    -0.13300
F2505       F  0.10512559  0.42202130  0.77852580    -0.13800
C2506       C  0.12778275  0.58613746  0.79282269     0.16000
C2507       C  0.13853201  0.63217326  0.79206635     0.25400
C2508       C  0.17486259  0.66261245  0.78770932    -0.40900
C2509       C  0.20008840  0.64572279  0.78415584     0.32400
C2510       C  0.18904161  0.59981213  0.78489059     0.14100
F2511       F  0.09235372  0.55736198  0.79696961    -0.13200
F2512       F  0.23615066  0.67378160  0.78004430    -0.13800
F2513       F  0.11256342  0.64651870  0.79545249    -0.16000
F2514       F  0.21408263  0.58469730  0.78141092    -0.14600
F2515       F  0.10599175  0.50349720  0.77880368    -0.14600
F2516       F  0.17868437  0.45543948  0.80069384    -0.16000
C2517       C  0.47381842  0.59843924  0.79708654     0.14000
C2518       C  0.46022927  0.56415467  0.79205101     0.01000
C2519       C  0.49067773  0.56992045  0.78668739     0.16000
C2520       C  0.53249182  0.61119269  0.78601233     0.25400
C2521       C  0.54445012  0.64751462  0.79069668    -0.40900
C2522       C  0.51576718  0.63976656  0.79644887     0.32400
C2523       C  0.41165582  0.52696123  0.79160856     0.01100
F2524       F  0.47824984  0.53682348  0.78180988    -0.13300
F2525       F  0.52577672  0.67385657  0.80106517    -0.13800
C2526       C  0.38259764  0.53145169  0.78685225     0.16000
C2527       C  0.33709560  0.49621502  0.78603731     0.25400
C2528       C  0.31961118  0.45538574  0.78995185    -0.40900
C2529       C  0.34835914  0.45169560  0.79493586     0.32400
C2530       C  0.39416513  0.48732073  0.79574470     0.14100
F2531       F  0.39852987  0.57024134  0.78296680    -0.13200
F2532       F  0.33274553  0.41308968  0.79884853    -0.13800
F2533       F  0.30999303  0.50237667  0.78144461    -0.16000
F2534       F  0.42172768  0.48272313  0.80043281    -0.14600
F2535       F  0.44457373  0.59361071  0.80226856    -0.14600
F2536       F  0.55980372  0.61672820  0.78051384    -0.16000
C2537       C  0.84367078  0.99801592  0.78196313     0.14000
C2538       C  0.87332823  0.02240755  0.78744148     0.01000
C2539       C  0.87019555  0.99918228  0.79361661     0.16000
C2540       C  0.83841026  0.95254777  0.79433718     0.25400
C2541       C  0.80928711  0.92729454  0.78882327    -0.40900
C2542       C  0.81181956  0.95078086  0.78263938     0.32400
C2543       C  0.90986341  0.07128564  0.78676914     0.01100
F2544       F  0.89927524  0.02143653  0.79893123    -0.13300
F2545       F  0.78429561  0.92807337  0.77720266    -0.13800
C2546       C  0.91346440  0.10339945  0.79172842     0.16000
C2547       C  0.95406115  0.14576800  0.79235122     0.25400
C2548       C  0.99130724  0.15736973  0.78788925    -0.40900
C2549       C  0.98619972  0.12680478  0.78254998     0.32400
C2550       C  0.94579168  0.08399630  0.78200825     0.14100
F2551       F  0.87871718  0.09231041  0.79628181    -0.13200
F2552       F  0.02204361  0.13615639  0.77831727    -0.13800
F2553       F  0.95784744  0.17448587  0.79754580    -0.16000
F2554       F  0.94358875  0.05332589  0.77725319    -0.14600
F2555       F  0.84567871  0.01988128  0.77596521    -0.14600
F2556       F  0.83664922  0.93228060  0.80048573    -0.16000
C2557       C  0.31047799  0.35487653  0.91104535     0.14000
C2558       C  0.33946344  0.40227475  0.91216216     0.01000
C2559       C  0.33795452  0.43388661  0.90756606     0.16000
C2560       C  0.30750151  0.41850797  0.90198881     0.25400
C2561       C  0.27753266  0.37092758  0.90091149    -0.40900
C2562       C  0.27979714  0.33928327  0.90548500     0.32400
C2563       C  0.37098410  0.41882682  0.91815966     0.01100
F2564       F  0.36664545  0.47983131  0.90842149    -0.13300
F2565       F  0.25207119  0.29316219  0.90464704    -0.13800
C2566       C  0.40532210  0.40680838  0.91892346     0.16000
C2567       C  0.43433264  0.42144953  0.92467979     0.25400
C2568       C  0.42981651  0.44880638  0.92978615    -0.40900
C2569       C  0.39581589  0.46156624  0.92890806     0.32400
C2570       C  0.36659865  0.44648508  0.92317374     0.14100
F2571       F  0.41096234  0.38106375  0.91405184    -0.13200
F2572       F  0.38956908  0.48731092  0.93370021    -0.13800
F2573       F  0.46688928  0.40877607  0.92523013    -0.16000
F2574       F  0.33296336  0.45771650  0.92261943    -0.14600
F2575       F  0.31123475  0.32361278  0.91543247    -0.14600
F2576       F  0.30804718  0.45043202  0.89760188    -0.16000
C2577       C  0.16147532  0.27160401  0.82585916     0.14000
C2578       C  0.18053997  0.31326276  0.82943987     0.01000
C2579       C  0.20170430  0.35508829  0.82574269     0.16000
C2580       C  0.20242094  0.35498303  0.81852069     0.25400
C2581       C  0.18211086  0.31297302  0.81491207    -0.40900
C2582       C  0.16222714  0.27131356  0.81870271     0.32400
C2583       C  0.17498904  0.31233048  0.83699044     0.01100
F2584       F  0.22131886  0.39594922  0.82913152    -0.13300
F2585       F  0.14147952  0.22972404  0.81551619    -0.13800
C2586       C  0.19141975  0.28952502  0.84124550     0.16000
C2587       C  0.18547201  0.28844999  0.84838791     0.25400
C2588       C  0.16346221  0.31056334  0.85134049    -0.40900
C2589       C  0.14506421  0.33123920  0.84705286     0.32400
C2590       C  0.15079487  0.33215274  0.83993951     0.14100
F2591       F  0.21526273  0.27041670  0.83851115    -0.13200
F2592       F  0.12369126  0.35281429  0.84981812    -0.13800
F2593       F  0.20477584  0.26951564  0.85244380    -0.16000
F2594       F  0.13333518  0.35307867  0.83593122    -0.14600
F2595       F  0.13991759  0.23082107  0.82930022    -0.14600
F2596       F  0.22262344  0.39580499  0.81508935    -0.16000
C2597       C  0.96051219  0.16273469  0.87321035     0.14000
C2598       C  0.94312391  0.12420200  0.87757941     0.01000
C2599       C  0.97175184  0.12204465  0.88268528     0.16000
C2600       C  0.01725199  0.15758198  0.88337745     0.25400
C2601       C  0.03511122  0.19619077  0.87897324    -0.40900
C2602       C  0.00617272  0.19859295  0.87390972     0.32400
C2603       C  0.89563712  0.08517471  0.87680555     0.01100
F2604       F  0.95588305  0.08474742  0.88690200    -0.13300
F2605       F  0.02173566  0.23606208  0.86974517    -0.13800
C2606       C  0.88336366  0.05622313  0.87102687     0.16000
C2607       C  0.84250692  0.01343963  0.87105106     0.25400
C2608       C  0.81374728  0.99919211  0.87689132    -0.40900
C2609       C  0.82381742  0.03064043  0.88232194     0.32400
C2610       C  0.86454377  0.07308416  0.88229498     0.14100
F2611       F  0.91283498  0.06760897  0.86563102    -0.13200
F2612       F  0.79546659  0.01913027  0.88786669    -0.13800
F2613       F  0.83343063  0.98446023  0.86565673    -0.16000
F2614       F  0.87507159  0.10124593  0.88783428    -0.14600
F2615       F  0.93306591  0.16583172  0.86833834    -0.14600
F2616       F  0.04424577  0.15340061  0.88822561    -0.16000
C2617       C  0.37660113  0.59068658  0.87805860     0.14000
C2618       C  0.42030229  0.59592943  0.87918505     0.01000
C2619       C  0.42454840  0.55686852  0.88038980     0.16000
C2620       C  0.38564234  0.51268283  0.88008190     0.25400
C2621       C  0.34219373  0.50727278  0.87852120    -0.40900
C2622       C  0.33784343  0.54675980  0.87773022     0.32400
C2623       C  0.46157831  0.64170990  0.87832193     0.01100
F2624       F  0.46669707  0.56152411  0.88149022    -0.13300
F2625       F  0.29612393  0.54280940  0.87646770    -0.13800
C2626       C  0.48502222  0.66882853  0.88403636     0.16000
C2627       C  0.52256723  0.71333139  0.88310606     0.25400
C2628       C  0.53701819  0.73140864  0.87641733    -0.40900
C2629       C  0.51379674  0.70333051  0.87070375     0.32400
C2630       C  0.47642000  0.65902472  0.87166561     0.14100
F2631       F  0.47057351  0.65272478  0.89050867    -0.13200
F2632       F  0.52699557  0.71868000  0.86416000    -0.13800
F2633       F  0.54342879  0.73928358  0.88875313    -0.16000
F2634       F  0.45416394  0.63303443  0.86607921    -0.14600
F2635       F  0.37178866  0.62817933  0.87701907    -0.14600
F2636       F  0.39094977  0.47529915  0.88082072    -0.16000
C2637       C  0.21653633  0.14060984  0.87993230     0.14000
C2638       C  0.19316142  0.11322939  0.87422041     0.01000
C2639       C  0.17479130  0.13042101  0.86928865     0.16000
C2640       C  0.17789443  0.17349930  0.87023061     0.25400
C2641       C  0.19883511  0.19976083  0.87619123    -0.40900
C2642       C  0.21926876  0.18333417  0.88092211     0.32400
C2643       C  0.18331721  0.06480073  0.87393848     0.01100
F2644       F  0.15159342  0.10432213  0.86376389    -0.13300
F2645       F  0.24015184  0.20778774  0.88668482    -0.13800
C2646       C  0.14279764  0.02976639  0.87695680     0.16000
C2647       C  0.13523050  0.98481159  0.87750145     0.25400
C2648       C  0.16798318  0.97374983  0.87499424    -0.40900
C2649       C  0.20763629  0.00847527  0.87166684     0.32400
C2650       C  0.21540136  0.05373891  0.87120352     0.14100
F2651       F  0.11099641  0.03947504  0.87955092    -0.13200
F2652       F  0.23984487  0.99914228  0.86913943    -0.13800
F2653       F  0.09563386  0.95196119  0.88047628    -0.16000
F2654       F  0.25472729  0.08702581  0.86823592    -0.14600
F2655       F  0.23434933  0.12460855  0.88477943    -0.14600
F2656       F  0.15686539  0.18754229  0.86562169    -0.16000
C2657       C  0.11648281  0.57781809  0.88251979     0.14000
C2658       C  0.12656259  0.55581301  0.87722099     0.01000
C2659       C  0.13558870  0.57503446  0.87058728     0.16000
C2660       C  0.13761575  0.61708450  0.86934682     0.25400
C2661       C  0.13085196  0.64128509  0.87475352    -0.40900
C2662       C  0.11831318  0.62003315  0.88130233     0.32400
C2663       C  0.13331491  0.51606419  0.87865247     0.01100
F2664       F  0.14555651  0.55452742  0.86536990    -0.13300
F2665       F  0.10899142  0.64050252  0.88659092    -0.13800
C2666       C  0.10686151  0.47406010  0.87519956     0.16000
C2667       C  0.12040713  0.44069149  0.87524487     0.25400
C2668       C  0.16063836  0.44880078  0.87875375    -0.40900
C2669       C  0.18457064  0.48905197  0.88272829     0.32400
C2670       C  0.17122320  0.52256406  0.88262675     0.14100
F2671       F  0.06952639  0.46660373  0.87144294    -0.13200
F2672       F  0.22365464  0.49822334  0.88613983    -0.13800
F2673       F  0.09563015  0.40148430  0.87154887    -0.16000
F2674       F  0.19795278  0.56327089  0.88587931    -0.14600
F2675       F  0.10604466  0.55894814  0.88892035    -0.14600
F2676       F  0.14873330  0.63499498  0.86289019    -0.16000
C2677       C  0.33416687  0.03051338  0.74592116     0.14000
C2678       C  0.28853522  0.99380805  0.74613862     0.01000
C2679       C  0.25791781  0.98935965  0.74086257     0.16000
C2680       C  0.27244594  0.02128119  0.73547586     0.25400
C2681       C  0.31821777  0.05826710  0.73520964    -0.40900
C2682       C  0.34899871  0.06236177  0.74049193     0.32400
C2683       C  0.27220805  0.96087226  0.75196822     0.01100
F2684       F  0.21397396  0.95345029  0.74086632    -0.13300
F2685       F  0.39331942  0.09748797  0.74046480    -0.13800
C2686       C  0.23659233  0.95706604  0.75619343     0.16000
C2687       C  0.22072294  0.92611083  0.76170645     0.25400
C2688       C  0.24061326  0.89847002  0.76319556    -0.40900
C2689       C  0.27596064  0.90193699  0.75884647     0.32400
C2690       C  0.29159058  0.93291426  0.75329922     0.14100
F2691       F  0.21773450  0.98419583  0.75505936    -0.13200
F2692       F  0.29568699  0.87558584  0.75994598    -0.13800
F2693       F  0.18600135  0.92371136  0.76559845    -0.16000
F2694       F  0.32543543  0.93534035  0.74917835    -0.14600
F2695       F  0.36412207  0.03599799  0.75104557    -0.14600
F2696       F  0.24185910  0.01496194  0.73041807    -0.16000
C2697       C  0.35813171  0.13452412  0.65891282     0.14000
C2698       C  0.33184297  0.14751860  0.66293305     0.01000
C2699       C  0.29993246  0.15710756  0.65968117     0.16000
C2700       C  0.29534413  0.15500117  0.65248628     0.25400
C2701       C  0.32292008  0.14360915  0.64842844    -0.40900
C2702       C  0.35382557  0.13264897  0.65174557     0.32400
C2703       C  0.33586977  0.14859516  0.67054153     0.01100
F2704       F  0.27428887  0.16998929  0.66347999    -0.13300
F2705       F  0.38051274  0.12064410  0.64802998    -0.13800
C2706       C  0.37754166  0.17885717  0.67389840     0.16000
C2707       C  0.38048486  0.17903765  0.68112464     0.25400
C2708       C  0.34172874  0.14894423  0.68506940    -0.40900
C2709       C  0.30035736  0.11841885  0.68163516     0.32400
C2710       C  0.29760490  0.11826937  0.67447865     0.14100
F2711       F  0.41502212  0.20876654  0.67018245    -0.13200
F2712       F  0.26239771  0.08769158  0.68519473    -0.13800
F2713       F  0.42062737  0.20934469  0.68424732    -0.16000
F2714       F  0.25755685  0.08761560  0.67136384    -0.14600
F2715       F  0.38785324  0.12335411  0.66193976    -0.14600
F2716       F  0.26592661  0.16664738  0.64948924    -0.16000
C2717       C  0.34744082  0.28242965  0.58735269     0.14000
C2718       C  0.39455045  0.31505135  0.58658188     0.01000
C2719       C  0.42596012  0.31494015  0.59139334     0.16000
C2720       C  0.41059279  0.28390600  0.59693118     0.25400
C2721       C  0.36309921  0.25280088  0.59793148    -0.40900
C2722       C  0.33183392  0.25193512  0.59296761     0.32400
C2723       C  0.41060207  0.34929878  0.58081453     0.01100
F2724       F  0.47162446  0.34607906  0.59089615    -0.13300
F2725       F  0.28594474  0.22178311  0.59353152    -0.13800
C2726       C  0.39004676  0.37653592  0.57966354     0.16000
C2727       C  0.40297000  0.40670367  0.57401088     0.25400
C2728       C  0.43758615  0.41116185  0.56941123    -0.40900
C2729       C  0.46034488  0.38618239  0.57088793     0.32400
C2730       C  0.44639840  0.35503056  0.57641281     0.14100
F2731       F  0.35744765  0.37415189  0.58406078    -0.13200
F2732       F  0.49618729  0.39155209  0.56697331    -0.13800
F2733       F  0.38128843  0.43136933  0.57306430    -0.16000
F2734       F  0.46715809  0.32943680  0.57732172    -0.14600
F2735       F  0.31631093  0.27990660  0.58263099    -0.14600
F2736       F  0.44252142  0.28528445  0.60139298    -0.16000
C2737       C  0.53236685  0.36223668  0.70361392     0.14000
C2738       C  0.56559887  0.38307604  0.70883014     0.01000
C2739       C  0.56330038  0.35695423  0.71462474     0.16000
C2740       C  0.52786689  0.31140186  0.71534445     0.25400
C2741       C  0.49306517  0.29039683  0.71027255    -0.40900
C2742       C  0.49631081  0.31637153  0.70432665     0.32400
C2743       C  0.60297720  0.43205086  0.70844770     0.01100
F2744       F  0.59589079  0.37571648  0.71962988    -0.13300
F2745       F  0.46443546  0.29779932  0.69923006    -0.13800
C2746       C  0.60549456  0.46327368  0.71348209     0.16000
C2747       C  0.64567969  0.50601014  0.71428783     0.25400
C2748       C  0.68417473  0.51866164  0.71002638    -0.40900
C2749       C  0.68002254  0.48900439  0.70457547     0.32400
C2750       C  0.63979590  0.44596814  0.70381816     0.14100
F2751       F  0.56984663  0.45107133  0.71790229    -0.13200
F2752       F  0.71644270  0.49955665  0.70039360    -0.13800
F2753       F  0.64778824  0.53404980  0.71947765    -0.16000
F2754       F  0.63836653  0.41635639  0.69893699    -0.14600
F2755       F  0.53421993  0.38660535  0.69790774    -0.14600
F2756       F  0.52808019  0.28813565  0.72107227    -0.16000
C2757       C  0.03763054  0.84459737  0.70690987     0.14000
C2758       C  0.05992909  0.84525291  0.71305327     0.01000
C2759       C  0.03395996  0.81662133  0.71853121     0.16000
C2760       C  0.98604231  0.78799001  0.71788495     0.25400
C2761       C  0.96323969  0.78814992  0.71175757    -0.40900
C2762       C  0.99002959  0.81672966  0.70626290     0.32400
C2763       C  0.10905907  0.88051985  0.71388448     0.01100
F2764       F  0.05499319  0.81689896  0.72452897    -0.13300
F2765       F  0.97039741  0.81842692  0.70022496    -0.13800
C2766       C  0.12050281  0.91953711  0.71789595     0.16000
C2767       C  0.16386233  0.95896938  0.71727060     0.25400
C2768       C  0.19654964  0.95993012  0.71262583    -0.40900
C2769       C  0.18646163  0.91957580  0.70904206     0.32400
C2770       C  0.14293467  0.88004575  0.70967158     0.14100
F2771       F  0.08806683  0.92105626  0.72189262    -0.13200
F2772       F  0.21802460  0.91916207  0.70471285    -0.13800
F2773       F  0.17195563  0.99775838  0.72064265    -0.16000
F2774       F  0.13283256  0.84225773  0.70585790    -0.14600
F2775       F  0.06189486  0.87273566  0.70159636    -0.14600
F2776       F  0.96209936  0.76097089  0.72330709    -0.16000
C2777       C  0.74869171  0.67830727  0.74702469     0.14000
C2778       C  0.75291494  0.72210464  0.74656524     0.01000
C2779       C  0.77485795  0.75022302  0.74085614     0.16000
C2780       C  0.79157537  0.73440130  0.73559391     0.25400
C2781       C  0.78626864  0.68994366  0.73592364    -0.40900
C2782       C  0.76504012  0.66220823  0.74172757     0.32400
C2783       C  0.73467657  0.73840357  0.75209506     0.01100
F2784       F  0.77896505  0.79254275  0.74028757    -0.13300
F2785       F  0.76066614  0.61981882  0.74231978    -0.13800
C2786       C  0.76447309  0.77766015  0.75589666     0.16000
C2787       C  0.74801951  0.79068915  0.76154363     0.25400
C2788       C  0.70132094  0.76432977  0.76352641    -0.40900
C2789       C  0.67114779  0.72605797  0.75947935     0.32400
C2790       C  0.68775677  0.71345597  0.75379666     0.14100
F2791       F  0.81004154  0.80220753  0.75433182    -0.13200
F2792       F  0.62595435  0.69946416  0.76115464    -0.13800
F2793       F  0.77836817  0.82829753  0.76518289    -0.16000
F2794       F  0.65817091  0.67621406  0.75001898    -0.14600
F2795       F  0.72912389  0.65137454  0.75265336    -0.14600
F2796       F  0.81130285  0.76205187  0.73005671    -0.16000
C2797       C  0.05629872  0.85416174  0.61715440     0.14000
C2798       C  0.06885988  0.88009049  0.62325030     0.01000
C2799       C  0.04052299  0.86216292  0.62908377     0.16000
C2800       C  0.99854757  0.82049611  0.62867390     0.25400
C2801       C  0.98423456  0.79631403  0.62239765    -0.40900
C2802       C  0.01446621  0.81276540  0.61672223     0.32400
C2803       C  0.10788513  0.92821569  0.62315872     0.01100
F2804       F  0.05172752  0.88677796  0.63501380    -0.13300
F2805       F  0.00258996  0.78982075  0.61063445    -0.13800
C2806       C  0.10543635  0.96047264  0.61881442     0.16000
C2807       C  0.14216077  0.00558487  0.61838027     0.25400
C2808       C  0.18256396  0.01977725  0.62229164    -0.40900
C2809       C  0.18441423  0.98776164  0.62683965     0.32400
C2810       C  0.14733626  0.94227937  0.62725243     0.14100
F2811       F  0.06702706  0.94821440  0.61499082    -0.13200
F2812       F  0.22258573  0.99991039  0.63070738    -0.13800
F2813       F  0.13774597  0.03557932  0.61416422    -0.16000
F2814       F  0.15047053  0.91162983  0.63148582    -0.14600
F2815       F  0.08359779  0.87026841  0.61148954    -0.14600
F2816       F  0.97022550  0.80605896  0.63423727    -0.16000
C2817       C  0.54920252  0.41558150  0.62869487     0.14000
C2818       C  0.56252684  0.43733397  0.62224931     0.01000
C2819       C  0.53314516  0.41687545  0.61656951     0.16000
C2820       C  0.49242172  0.37407040  0.61726849     0.25400
C2821       C  0.48042959  0.35086947  0.62367954    -0.40900
C2822       C  0.50871047  0.37343629  0.62942911     0.32400
C2823       C  0.60929757  0.47842055  0.62150425     0.01100
F2824       F  0.54432743  0.43795378  0.61032047    -0.13300
F2825       F  0.49853705  0.35414904  0.63580705    -0.13800
C2826       C  0.64189728  0.47648981  0.61717458     0.16000
C2827       C  0.68880732  0.50896759  0.61781116     0.25400
C2828       C  0.70403536  0.54392729  0.62281208    -0.40900
C2829       C  0.67099697  0.54824772  0.62671048     0.32400
C2830       C  0.62405195  0.51600990  0.62601692     0.14100
F2831       F  0.62893186  0.44078450  0.61275480    -0.13200
F2832       F  0.68423566  0.58263539  0.63139001    -0.13800
F2833       F  0.71957110  0.50355286  0.61396308    -0.16000
F2834       F  0.59312089  0.51991656  0.63005339    -0.14600
F2835       F  0.57699833  0.43376503  0.63427418    -0.14600
F2836       F  0.46552909  0.35509642  0.61163397    -0.16000
C2837       C  0.88847388  0.67678630  0.66018718     0.14000
C2838       C  0.85582586  0.68025717  0.66428437     0.01000
C2839       C  0.82414528  0.69052334  0.66110508     0.16000
C2840       C  0.82325675  0.69413835  0.65390408     0.25400
C2841       C  0.85464129  0.68853779  0.64981397    -0.40900
C2842       C  0.88796395  0.68106524  0.65303173     0.32400
C2843       C  0.85418709  0.67155597  0.67181778     0.01100
F2844       F  0.79311871  0.69547656  0.66495727    -0.13300
F2845       F  0.91739661  0.67361530  0.64917776    -0.13800
C2846       C  0.89342996  0.69774174  0.67588771     0.16000
C2847       C  0.89208159  0.69017691  0.68297792     0.25400
C2848       C  0.85127677  0.65646684  0.68618781    -0.40900
C2849       C  0.81267687  0.62857088  0.68208214     0.32400
C2850       C  0.81406408  0.63620457  0.67495036     0.14100
F2851       F  0.93268899  0.73198100  0.67303162    -0.13200
F2852       F  0.77285480  0.59582929  0.68501067    -0.13800
F2853       F  0.93049611  0.71695992  0.68675735    -0.16000
F2854       F  0.77607230  0.60935170  0.67110788    -0.14600
F2855       F  0.91873267  0.66582794  0.66307486    -0.14600
F2856       F  0.78989334  0.69998527  0.65090144    -0.16000
C2857       C  0.92885341  0.64461106  0.58838470     0.14000
C2858       C  0.91690746  0.59816970  0.58761344     0.01000
C2859       C  0.88892074  0.56626928  0.59267608     0.16000
C2860       C  0.87289985  0.58031577  0.59831806     0.25400
C2861       C  0.88531311  0.62703023  0.59914288    -0.40900
C2862       C  0.91374153  0.65893636  0.59409403     0.32400
C2863       C  0.93321553  0.58305652  0.58151400     0.01100
F2864       F  0.87781139  0.52142853  0.59225429    -0.13300
F2865       F  0.92685464  0.70424933  0.59461778    -0.13800
C2866       C  0.98006487  0.60637376  0.57962726     0.16000
C2867       C  0.99506923  0.59319223  0.57377352     0.25400
C2868       C  0.96381284  0.55523371  0.56974312    -0.40900
C2869       C  0.91695202  0.53165535  0.57169883     0.32400
C2870       C  0.90188031  0.54567792  0.57745197     0.14100
F2871       F  0.01166231  0.64190043  0.58349287    -0.13200
F2872       F  0.88520345  0.49525664  0.56799442    -0.13800
F2873       F  0.04025302  0.61842665  0.57201235    -0.16000
F2874       F  0.85615578  0.52336875  0.57892621    -0.14600
F2875       F  0.95451889  0.67627297  0.58351854    -0.14600
F2876       F  0.84580201  0.54799283  0.60301965    -0.16000
C2877       C  0.84059788  0.88330421  0.71768277     0.14000
C2878       C  0.81310474  0.89420297  0.71350130     0.01000
C2879       C  0.77866285  0.85960228  0.70938856     0.16000
C2880       C  0.77443715  0.81588034  0.70903311     0.25400
C2881       C  0.80431048  0.80607026  0.71283667    -0.40900
C2882       C  0.83609821  0.83957808  0.71738542     0.32400
C2883       C  0.82545105  0.94303214  0.71268080     0.01100
F2884       F  0.75077517  0.86897115  0.70545149    -0.13300
F2885       F  0.86630013  0.83180192  0.72100051    -0.13800
C2886       C  0.84108712  0.96466148  0.70626424     0.16000
C2887       C  0.85916582  0.01207340  0.70557216     0.25400
C2888       C  0.86208255  0.03920289  0.71130781    -0.40900
C2889       C  0.84490116  0.01711032  0.71770358     0.32400
C2890       C  0.82685067  0.96947800  0.71837270     0.14100
F2891       F  0.84085206  0.94012472  0.70069581    -0.13200
F2892       F  0.84671424  0.04159688  0.72337015    -0.13800
F2893       F  0.87419963  0.03127037  0.69925643    -0.16000
F2894       F  0.81139755  0.94920591  0.72461175    -0.14600
F2895       F  0.87487272  0.91636149  0.72156525    -0.14600
F2896       F  0.74249776  0.78375344  0.70476191    -0.16000
C2897       C  0.83936632  0.36195701  0.70559174     0.14000
C2898       C  0.86730514  0.39890934  0.70994496     0.01000
C2899       C  0.89792872  0.39507516  0.71447170     0.16000
C2900       C  0.89864710  0.35375369  0.71494826     0.25400
C2901       C  0.86921294  0.31588283  0.71082043    -0.40900
C2902       C  0.84055710  0.32080926  0.70597875     0.32400
C2903       C  0.85906623  0.43809640  0.71059523     0.01100
F2904       F  0.92500251  0.43044211  0.71873815    -0.13300
F2905       F  0.81035204  0.28434567  0.70212099    -0.13800
C2906       C  0.82840893  0.43628544  0.71564077     0.16000
C2907       C  0.81961110  0.47256451  0.71639039     0.25400
C2908       C  0.84147885  0.51182921  0.71208226    -0.40900
C2909       C  0.87262716  0.51361021  0.70703743     0.32400
C2910       C  0.88125543  0.47691226  0.70630384     0.14100
F2911       F  0.80669117  0.39897246  0.71984505    -0.13200
F2912       F  0.89548797  0.55115011  0.70291546    -0.13800
F2913       F  0.78898815  0.46862473  0.72129653    -0.16000
F2914       F  0.91152697  0.47937369  0.70145427    -0.14600
F2915       F  0.80847144  0.36456972  0.70134645    -0.14600
F2916       F  0.92635741  0.34988909  0.71969335    -0.16000
C2917       C  0.17144073  0.16026141  0.71916323     0.14000
C2918       C  0.14794088  0.16504987  0.71348167     0.01000
C2919       C  0.15608388  0.15331270  0.70690571     0.16000
C2920       C  0.18711429  0.13752513  0.70598309     0.25400
C2921       C  0.21069230  0.13233406  0.71164318    -0.40900
C2922       C  0.20260089  0.14412090  0.71825730     0.32400
C2923       C  0.11280751  0.17952819  0.71429745     0.01100
F2924       F  0.13269180  0.15566769  0.70134153    -0.13300
F2925       F  0.22383265  0.13895029  0.72387184    -0.13800
C2926       C  0.11468654  0.21501756  0.71015092     0.16000
C2927       C  0.07674914  0.22179169  0.70971116     0.25400
C2928       C  0.03652861  0.19379942  0.71350898    -0.40900
C2929       C  0.03610346  0.16085600  0.71808251     0.32400
C2930       C  0.07383628  0.15370991  0.71845924     0.14100
F2931       F  0.15237342  0.24141863  0.70621459    -0.13200
F2932       F  0.99723315  0.13193872  0.72161243    -0.13800
F2933       F  0.07842583  0.25414949  0.70530518    -0.16000
F2934       F  0.07040101  0.11857884  0.72240116    -0.14600
F2935       F  0.16418209  0.17114796  0.72559018    -0.14600
F2936       F  0.19388242  0.12731979  0.69947898    -0.16000
C2937       C  0.64011724  0.16676535  0.71400611     0.14000
C2938       C  0.61396065  0.13797238  0.70858633     0.01000
C2939       C  0.63401224  0.12018415  0.70411928     0.16000
C2940       C  0.67949577  0.13003916  0.70518396     0.25400
C2941       C  0.70569896  0.15817027  0.71073486    -0.40900
C2942       C  0.68547566  0.17700450  0.71506147     0.32400
C2943       C  0.56540246  0.12618430  0.70782764     0.01100
F2944       F  0.60917146  0.09246356  0.69882699    -0.13300
F2945       F  0.70959220  0.20586641  0.72029968    -0.13800
C2946       C  0.55307697  0.14944526  0.70300527     0.16000
C2947       C  0.50990230  0.14650384  0.70340421     0.25400
C2948       C  0.47900141  0.12094547  0.70873244    -0.40900
C2949       C  0.48988205  0.09415812  0.71311447     0.32400
C2950       C  0.53279088  0.09685124  0.71266564     0.14100
F2951       F  0.58437376  0.17829135  0.69832848    -0.13200
F2952       F  0.46026329  0.06796058  0.71816313    -0.13800
F2953       F  0.50058203  0.17272359  0.69907395    -0.16000
F2954       F  0.54393199  0.07351275  0.71729426    -0.14600
F2955       F  0.62153862  0.18508840  0.71829740    -0.14600
F2956       F  0.69732206  0.11109356  0.70088002    -0.16000
C2957       C  0.96259660  0.25160415  0.74714674     0.14000
C2958       C  0.99472235  0.23641620  0.74767324     0.01000
C2959       C  0.99528770  0.20687200  0.74263765     0.16000
C2960       C  0.96454510  0.19288506  0.73711795     0.25400
C2961       C  0.93237762  0.20828528  0.73648217    -0.40900
C2962       C  0.93169744  0.23774879  0.74160204     0.32400
C2963       C  0.02808474  0.25148957  0.75342731     0.01100
F2964       F  0.02665423  0.19249833  0.74296627    -0.13300
F2965       F  0.90125977  0.25326884  0.74126650    -0.13800
C2966       C  0.02813083  0.21892390  0.75798265     0.16000
C2967       C  0.06011605  0.23284934  0.76335389     0.25400
C2968       C  0.09259498  0.27991566  0.76433120    -0.40900
C2969       C  0.09293041  0.31237894  0.75963398     0.32400
C2970       C  0.06096113  0.29821628  0.75424803     0.14100
F2971       F  0.99642803  0.17353911  0.75730853    -0.13200
F2972       F  0.12410481  0.35796661  0.76022567    -0.13800
F2973       F  0.05842619  0.20010170  0.76766550    -0.16000
F2974       F  0.06246624  0.33013864  0.74976569    -0.14600
F2975       F  0.96093629  0.27958055  0.75204296    -0.14600
F2976       F  0.96744276  0.16522201  0.73230138    -0.16000
C2977       C  0.49515136  0.12465313  0.62463880     0.14000
C2978       C  0.52687549  0.14343547  0.61921820     0.01000
C2979       C  0.52231241  0.17203503  0.61435067     0.16000
C2980       C  0.48825117  0.18432362  0.61519401     0.25400
C2981       C  0.45909924  0.16863832  0.62097874    -0.40900
C2982       C  0.46165849  0.13727189  0.62553448     0.32400
C2983       C  0.57040692  0.14281699  0.61980968     0.01100
F2984       F  0.55337326  0.19128345  0.60916244    -0.13300
F2985       F  0.43334048  0.12085717  0.63108980    -0.13800
C2986       C  0.57863330  0.11146686  0.61617648     0.16000
C2987       C  0.61905731  0.10964196  0.61742100     0.25400
C2988       C  0.65109920  0.13870899  0.62239834    -0.40900
C2989       C  0.64276101  0.17071084  0.62586977     0.32400
C2990       C  0.60297818  0.17268570  0.62457232     0.14100
F2991       F  0.54728526  0.08225092  0.61155207    -0.13200
F2992       F  0.67369339  0.20114456  0.63043311    -0.13800
F2993       F  0.62629938  0.07890690  0.61389450    -0.16000
F2994       F  0.59582097  0.20369002  0.62804723    -0.14600
F2995       F  0.49950512  0.09748063  0.62943798    -0.14600
F2996       F  0.48676408  0.21498103  0.61076074    -0.16000
C2997       C  0.04888340  0.19893031  0.62949630     0.14000
C2998       C  0.07233034  0.19220163  0.62402566     0.01000
C2999       C  0.04932745  0.17532636  0.61774177     0.16000
C3000       C  0.00374980  0.16483037  0.61692323     0.25400
C3001       C  0.97969592  0.17130626  0.62237457    -0.40900
C3002       C  0.00297269  0.18862821  0.62868707     0.32400
C3003       C  0.11926796  0.19860897  0.62487244     0.01100
F3004       F  0.07051071  0.16705385  0.61243077    -0.13300
F3005       F  0.98151241  0.19569649  0.63407670    -0.13800
C3006       C  0.12650505  0.17017236  0.62943692     0.16000
C3007       C  0.16678588  0.16730754  0.62901788     0.25400
C3008       C  0.20027082  0.19255252  0.62397620    -0.40900
C3009       C  0.19452346  0.22364910  0.61977532     0.32400
C3010       C  0.15459737  0.22696151  0.62026657     0.14100
F3011       F  0.09257284  0.14168874  0.63382501    -0.13200
F3012       F  0.22630737  0.24873990  0.61489064    -0.13800
F3013       F  0.17052119  0.13599473  0.63301352    -0.16000
F3014       F  0.14892617  0.25550618  0.61590096    -0.14600
F3015       F  0.07048476  0.21552883  0.63561348    -0.14600
F3016       F  0.98283670  0.14662112  0.61081431    -0.16000
C3017       C  0.88142467  0.45940971  0.61861938     0.14000
C3018       C  0.84131473  0.41732469  0.61996166     0.01000
C3019       C  0.80124346  0.41688499  0.62216869     0.16000
C3020       C  0.80167760  0.45805324  0.62330097     0.25400
C3021       C  0.84217244  0.50038729  0.62219054    -0.40900
C3022       C  0.88173218  0.50085552  0.61965320     0.32400
C3023       C  0.84142654  0.37358622  0.61974903     0.01100
F3024       F  0.76215398  0.37642729  0.62351511    -0.13300
F3025       F  0.92115106  0.54130680  0.61848247    -0.13800
C3026       C  0.86535387  0.36411400  0.62484293     0.16000
C3027       C  0.85604798  0.31903034  0.62588059     0.25400
C3028       C  0.82305098  0.28316218  0.62178179    -0.40900
C3029       C  0.80181219  0.29337577  0.61634092     0.32400
C3030       C  0.81096304  0.33837973  0.61533916     0.14100
F3031       F  0.89477837  0.39781052  0.62917341    -0.13200
F3032       F  0.76899837  0.25921913  0.61241286    -0.13800
F3033       F  0.87765397  0.31007319  0.63107902    -0.16000
F3034       F  0.78761013  0.34710783  0.61039123    -0.14600
F3035       F  0.92033639  0.46024342  0.61644907    -0.14600
F3036       F  0.76244532  0.45648823  0.62550214    -0.16000
C3037       C  0.77650152  0.83545944  0.61919179     0.14000
C3038       C  0.80520273  0.87404631  0.62326529     0.01000
C3039       C  0.83922409  0.87276759  0.62738524     0.16000
C3040       C  0.84524477  0.83429982  0.62727354     0.25400
C3041       C  0.81834923  0.79707716  0.62288789    -0.40900
C3042       C  0.78360676  0.79775464  0.61890503     0.32400
C3043       C  0.80296269  0.91719488  0.62266024     0.01100
F3044       F  0.86876518  0.91000961  0.63116109    -0.13300
F3045       F  0.75705282  0.76217898  0.61463317    -0.13800
C3046       C  0.80061372  0.94054119  0.62852476     0.16000
C3047       C  0.80403412  0.98391659  0.62790159     0.25400
C3048       C  0.80957718  0.00466750  0.62137590    -0.40900
C3049       C  0.80840161  0.97935200  0.61548780     0.32400
C3050       C  0.80604397  0.93678087  0.61613889     0.14100
F3051       F  0.79600363  0.92176530  0.63488284    -0.13200
F3052       F  0.81134532  0.99636564  0.60903131    -0.13800
F3053       F  0.80376969  0.00618693  0.63371234    -0.16000
F3054       F  0.80955022  0.91599390  0.61036051    -0.14600
F3055       F  0.74232404  0.83482291  0.61533376    -0.14600
F3056       F  0.87976609  0.83498581  0.63104591    -0.16000
C3057       C  0.85548550  0.19613142  0.65981281     0.14000
C3058       C  0.84603687  0.15622317  0.66345419     0.01000
C3059       C  0.83868553  0.11692101  0.65975990     0.16000
C3060       C  0.83883574  0.11708718  0.65251742     0.25400
C3061       C  0.84635057  0.15659588  0.64887330    -0.40900
C3062       C  0.85584684  0.19646284  0.65263501     0.32400
C3063       C  0.84610018  0.15679179  0.67110155     0.01100
F3064       F  0.82978964  0.07788926  0.66316983    -0.13300
F3065       F  0.86490802  0.23601618  0.64936060    -0.13800
C3066       C  0.81686660  0.16800846  0.67481335     0.16000
C3067       C  0.81906500  0.17077874  0.68203770     0.25400
C3068       C  0.85018473  0.16184568  0.68565712    -0.40900
C3069       C  0.87968286  0.15118304  0.68188158     0.32400
C3070       C  0.87765787  0.14880461  0.67471321     0.14100
F3071       F  0.78583294  0.17576217  0.67143852    -0.13200
F3072       F  0.91162637  0.14408886  0.68511319    -0.13800
F3073       F  0.79019907  0.18118600  0.68547481    -0.16000
F3074       F  0.90771955  0.14007493  0.67127181    -0.14600
F3075       F  0.86469448  0.23514983  0.66322410    -0.14600
F3076       F  0.82931035  0.07802850  0.64910068    -0.16000
C3077       C  0.67989878  0.10808516  0.59201034     0.14000
C3078       C  0.68144722  0.07854641  0.58705536     0.01000
C3079       C  0.71427035  0.06435220  0.58771891     0.16000
C3080       C  0.74517746  0.07949627  0.59325977     0.25400
C3081       C  0.74348009  0.10880462  0.59830757    -0.40900
C3082       C  0.71040137  0.12303081  0.59757820     0.32400
C3083       C  0.64897192  0.06291933  0.58116945     0.01100
F3084       F  0.71672265  0.03615132  0.58294324    -0.13300
F3085       F  0.70671816  0.15082116  0.60230300    -0.13800
C3086       C  0.64924481  0.09510261  0.57650154     0.16000
C3087       C  0.61886773  0.08058730  0.57090933     0.25400
C3088       C  0.58769655  0.03327259  0.56981012    -0.40900
C3089       C  0.58697033  0.00117924  0.57462481     0.32400
C3090       C  0.61734551  0.01593520  0.58022840     0.14100
F3091       F  0.67984488  0.14071986  0.57727125    -0.13200
F3092       F  0.55704143  0.95535666  0.57393382    -0.13800
F3093       F  0.62067139  0.11309921  0.56653496    -0.16000
F3094       F  0.61562052  0.98428341  0.58478704    -0.14600
F3095       F  0.64796604  0.12166126  0.59153987    -0.14600
F3096       F  0.77667713  0.06534567  0.59365634    -0.16000
loop_ 
_geom_bond_atom_site_label_1 
_geom_bond_atom_site_label_2 
_geom_bond_distance 
_geom_bond_site_symmetry_2 
_ccdc_geom_bond_type 
O1           Ni7   1.907       .  S
O1           C22   1.264       .  A
O2          Ni25   1.890       .  S
O2           C11   1.261       .  A
O3           Ni7   1.901       .  S
O3          Ni25   1.899       .  S
O3          Ni19   1.915       .  S
O3           H26   0.966       .  S
C4           O21   1.281       .  A
C4           O13   1.278       .  A
C4         C3001   1.493       .  S
O5          Ni24   1.945       .  S
O5           C11   1.274       .  A
O6          Ni24   1.895       .  S
O6            C8   1.269       .  A
Ni7          O10   1.922       .  S
Ni7          O12   1.896       .  S
C8           O18   1.278       .  A
C8         C3048   1.493       .  S
O9          Ni25   1.915       .  S
O9           C15   1.275       .  A
O10          C15   1.278       .  A
C11        C3081   1.490       .  S
O12          C14   1.263       .  A
O13         Ni24   1.919       .  S
C14          O20   1.265       .  A
C14        C3028   1.466       .  S
C15        C2988   1.481       .  S
H16          O17   0.966       .  S
O17         Ni25   1.905       .  S
O17         Ni19   1.913       .  S
O17         Ni24   1.894       .  S
O18         Ni19   1.941       .  S
Ni19         O23   1.939       .  S
Ni19         O21   1.933       .  S
O20         Ni25   1.914       .  S
C22          O23   1.275       .  A
C22        C3061   1.486       .  S
O27         Ni33   1.952       .  S
O27          C48   1.278       .  A
O28         Ni51   1.938       .  S
O28          C37   1.274       .  A
O29         Ni33   1.890       .  S
O29         Ni51   1.905       .  S
O29         Ni45   1.901       .  S
O29          H52   0.966       .  S
C30          O47   1.278       .  A
C30          O39   1.276       .  A
C30        C2928   1.481   1_655  S
O31         Ni50   1.904       .  S
O31          C37   1.263       .  A
O32         Ni50   1.906       .  S
O32          C34   1.267       .  A
Ni33         O36   1.935       .  S
Ni33         O38   1.903       .  S
C34          O44   1.269       .  A
C34        C2888   1.487       .  S
O35         Ni51   1.918       .  S
O35          C41   1.281       .  A
O36          C41   1.283       .  A
C37        C3068   1.486       .  S
O38          C40   1.269       .  A
O39         Ni50   1.917       .  S
C40          O46   1.275       .  A
C40        C2901   1.477       .  S
C41        C2941   1.490       .  S
H42          O43   0.966       .  S
O43         Ni51   1.926       .  S
O43         Ni45   1.893       .  S
O43         Ni50   1.896       .  S
O44         Ni45   1.922       .  S
Ni45         O49   1.887       .  S
Ni45         O47   1.933       .  S
O46         Ni51   1.935       .  S
C48          O49   1.265       .  A
C48        C2961   1.489       .  S
O53         Ni59   1.918       .  S
O53          C74   1.270       .  A
O54         Ni77   1.901       .  S
O54          C63   1.264       .  A
O55         Ni59   1.909       .  S
O55         Ni77   1.903       .  S
O55         Ni71   1.915       .  S
O55          H78   0.966       .  S
C56          O73   1.281       .  A
C56          O65   1.279       .  A
C56        C3041   1.476       .  S
O57         Ni76   1.946       .  S
O57          C63   1.275       .  A
O58         Ni76   1.905       .  S
O58          C60   1.270       .  A
Ni59         O62   1.937       .  S
Ni59         O64   1.905       .  S
C60          O70   1.275       .  A
C60        C2801   1.485       .  S
O61         Ni77   1.894       .  S
O61          C67   1.265       .  A
O62          C67   1.275       .  A
C63        C2861   1.497       .  S
O64          C66   1.268       .  A
O65         Ni76   1.923       .  S
C66          O72   1.276       .  A
C66        C2828   1.483       .  S
C67        C3021   1.468       .  S
H68          O69   0.966       .  S
O69         Ni77   1.897       .  S
O69         Ni71   1.911       .  S
O69         Ni76   1.898       .  S
O70         Ni71   1.933       .  S
Ni71         O75   1.926       .  S
Ni71         O73   1.929       .  S
O72         Ni77   1.949       .  S
C74          O75   1.275       .  A
C74        C2841   1.471       .  S
O79         Ni85   1.947       .  S
O79         C100   1.279       .  A
O80        Ni103   1.935       .  S
O80          C89   1.275       .  A
O81         Ni85   1.885       .  S
O81        Ni103   1.900       .  S
O81         Ni97   1.898       .  S
O81         H104   0.966       .  S
C82          O99   1.278       .  A
C82          O91   1.276       .  A
C82        C2881   1.479       .  S
O83        Ni102   1.907       .  S
O83          C89   1.264       .  A
O84        Ni102   1.908       .  S
O84          C86   1.267       .  A
Ni85         O88   1.929       .  S
Ni85         O90   1.912       .  S
C86          O96   1.270       .  A
C86        C2761   1.493       .  S
O87        Ni103   1.925       .  S
O87          C93   1.284       .  A
O88          C93   1.282       .  A
C89        C2848   1.480       .  S
O90          C92   1.271       .  A
O91        Ni102   1.919       .  S
C92          O98   1.276       .  A
C92        C2748   1.490       .  S
C93        C2908   1.489       .  S
H94          O95   0.965       .  S
O95        Ni103   1.925       .  S
O95         Ni97   1.887       .  S
O95        Ni102   1.892       .  S
O96         Ni97   1.930       .  S
Ni97        O101   1.882       .  S
Ni97         O99   1.932       .  S
O98        Ni103   1.940       .  S
C100        O101   1.264       .  A
C100       C2781   1.476       .  S
O105       Ni111   1.905       .  S
O105        C126   1.261       .  A
O106       Ni129   1.897       .  S
O106        C115   1.265       .  A
O107       Ni111   1.899       .  S
O107       Ni129   1.899       .  S
O107       Ni123   1.914       .  S
O107        H130   0.981       .  S
C108        O125   1.277       .  A
C108        O117   1.279       .  A
C108       C2808   1.490       .  S
O109       Ni128   1.948       .  S
O109        C115   1.276       .  A
O110       Ni128   1.902       .  S
O110        C112   1.270       .  A
Ni111       O114   1.912       .  S
Ni111       O116   1.896       .  S
C112        O122   1.277       .  A
C112       C3008   1.482       .  S
O113       Ni129   1.939       .  S
O113        C119   1.282       .  A
O114        C119   1.276       .  A
C115       C2721   1.496       .  S
O116        C118   1.264       .  A
O117       Ni128   1.931       .  S
C118        O124   1.268       .  A
C118       C2981   1.475       .  S
C119       C2821   1.498       .  S
H120        O121   0.966       .  S
O121       Ni129   1.919       .  S
O121       Ni123   1.924       .  S
O121       Ni128   1.904       .  S
O122       Ni123   1.942       .  S
Ni123       O127   1.939       .  S
Ni123       O125   1.923       .  S
O124       Ni129   1.928       .  S
C126        O127   1.273       .  A
C126       C2701   1.484       .  S
O131       Ni137   1.946       .  S
O131        C152   1.276       .  A
O132       Ni155   1.937       .  S
O132        C141   1.274       .  A
O133       Ni137   1.891       .  S
O133       Ni155   1.910       .  S
O133       Ni149   1.904       .  S
O133        H156   0.966       .  S
C134        O151   1.277       .  A
C134        O143   1.277       .  A
C134       C2768   1.477   1_545  S
O135       Ni154   1.904       .  S
O135        C141   1.263       .  A
O136       Ni154   1.904       .  S
O136        C138   1.267       .  A
Ni137       O140   1.932       .  S
Ni137       O142   1.901       .  S
C138        O148   1.273       .  A
C138       C2921   1.491       .  S
O139       Ni155   1.929       .  S
O139        C145   1.283       .  A
O140        C145   1.282       .  A
C141       C2708   1.484       .  S
O142        C144   1.268       .  A
O143       Ni154   1.921       .  S
C144        O150   1.274       .  A
C144       C2948   1.480       .  S
C145       C2741   1.500       .  S
H146        O147   0.968       .  S
O147       Ni155   1.929       .  S
O147       Ni149   1.889       .  S
O147       Ni154   1.890       .  S
O148       Ni149   1.936       .  S
Ni149       O153   1.890       .  S
Ni149       O151   1.927       .  S
O150       Ni155   1.936       .  S
C152        O153   1.266       .  A
C152       C2681   1.485       .  S
O157       Ni163   1.907       .  S
O157        C178   1.268       .  A
O158       Ni181   1.894       .  S
O158        C167   1.266       .  A
O159       Ni163   1.911       .  S
O159       Ni181   1.907       .  S
O159       Ni175   1.928       .  S
O159        H182   0.964       .  S
C160        O177   1.282       .  A
C160        O169   1.280       .  A
C160       C2601   1.481       .  S
O161       Ni180   1.940       .  S
O161        C167   1.275       .  A
O162       Ni180   1.909       .  S
O162        C164   1.269       .  A
Ni163       O166   1.933       .  S
Ni163       O168   1.899       .  S
C164        O174   1.275       .  A
C164       C2641   1.490       .  S
O165       Ni181   1.912       .  S
O165        C171   1.269       .  A
O166        C171   1.272       .  A
C167       C2561   1.487       .  S
O168        C170   1.267       .  A
O169       Ni180   1.921       .  S
C170        O176   1.280       .  A
C170       C2668   1.482       .  S
C171       C2621   1.477       .  S
H172        O173   0.967       .  S
O173       Ni181   1.894       .  S
O173       Ni175   1.894       .  S
O173       Ni180   1.895       .  S
O174       Ni175   1.939       .  S
Ni175       O179   1.911       .  S
Ni175       O177   1.928       .  S
O176       Ni181   1.963       .  S
C178        O179   1.270       .  A
C178       C2588   1.464       .  S
O183       Ni189   1.939       .  S
O183        C204   1.275       .  A
O184       Ni207   1.927       .  S
O184        C193   1.271       .  A
O185       Ni189   1.895       .  S
O185       Ni207   1.911       .  S
O185       Ni201   1.911       .  S
O185        H208   0.966       .  S
C186        O203   1.280       .  A
C186        O195   1.279       .  A
C186       C2548   1.478   1_455  S
O187       Ni206   1.907       .  S
O187        C193   1.263       .  A
O188       Ni206   1.897       .  S
O188        C190   1.266       .  A
Ni189       O192   1.929       .  S
Ni189       O194   1.897       .  S
C190        O200   1.270       .  A
C190       C2481   1.482       .  S
O191       Ni207   1.919       .  S
O191        C197   1.277       .  A
O192        C197   1.280       .  A
C193       C2581   1.483       .  S
O194        C196   1.268       .  A
O195       Ni206   1.917       .  S
C196        O202   1.276       .  A
C196       C2501   1.486       .  S
C197       C2528   1.485       .  S
H198        O199   0.967       .  S
O199       Ni207   1.917       .  S
O199       Ni201   1.890       .  S
O199       Ni206   1.889       .  S
O200       Ni201   1.932       .  S
Ni201       O205   1.895       .  S
Ni201       O203   1.931       .  S
O202       Ni207   1.943       .  S
C204        O205   1.266       .  A
C204       C2968   1.489       .  S
O209       Ni215   1.916       .  S
O209        C230   1.269       .  A
O210       Ni233   1.894       .  S
O210        C219   1.266       .  A
O211       Ni215   1.895       .  S
O211       Ni233   1.897       .  S
O211       Ni227   1.922       .  S
O211        H234   0.975       .  S
C212        O229   1.281       .  A
C212        O221   1.279       .  A
C212       C2441   1.499       .  S
O213       Ni232   1.940       .  S
O213        C219   1.274       .  A
O214       Ni232   1.895       .  S
O214        C216   1.268       .  A
Ni215       O218   1.922       .  S
Ni215       O220   1.904       .  S
C216        O226   1.275       .  A
C216       C2608   1.481       .  S
O217       Ni233   1.927       .  S
O217        C223   1.277       .  A
O218        C223   1.277       .  A
C219       C2408   1.489       .  S
O220        C222   1.268       .  A
O221       Ni232   1.927       .  S
C222        O228   1.272       .  A
C222       C2628   1.485       .  S
C223       C2428   1.486       .  S
H224        O225   0.965       .  S
O225       Ni233   1.906       .  S
O225       Ni227   1.906       .  S
O225       Ni232   1.895       .  S
O226       Ni227   1.939       .  S
Ni227       O231   1.919       .  S
Ni227       O229   1.933       .  S
O228       Ni233   1.926       .  S
C230        O231   1.272       .  A
C230       C2461   1.479       .  S
O235       Ni241   1.943       .  S
O235        C256   1.278       .  A
O236       Ni259   1.926       .  S
O236        C245   1.271       .  A
O237       Ni241   1.892       .  S
O237       Ni259   1.901       .  S
O237       Ni253   1.907       .  S
O237        H260   0.967       .  S
C238        O255   1.282       .  A
C238        O247   1.275       .  A
C238       C2388   1.492       .  S
O239       Ni258   1.899       .  S
O239        C245   1.262       .  A
O240       Ni258   1.903       .  S
O240        C242   1.267       .  A
Ni241       O244   1.942       .  S
Ni241       O246   1.902       .  S
C242        O252   1.269       .  A
C242       C2541   1.486       .  S
O243       Ni259   1.916       .  S
O243        C249   1.278       .  A
O244        C249   1.282       .  A
C245       C2468   1.472       .  S
O246        C248   1.268       .  A
O247       Ni258   1.909       .  S
C248        O254   1.274       .  A
C248       C2521   1.484       .  S
C249       C2361   1.477       .  S
H250        O251   0.966       .  S
O251       Ni259   1.923       .  S
O251       Ni253   1.888       .  S
O251       Ni258   1.892       .  S
O252       Ni253   1.925       .  S
Ni253       O257   1.881       .  S
Ni253       O255   1.945       .  S
O254       Ni259   1.939       .  S
C256        O257   1.265       .  A
C256       C2788   1.481       .  S
O261       Ni267   1.911       .  S
O261        C282   1.264       .  A
O262       Ni285   1.903       .  S
O262        C271   1.268       .  A
O263       Ni267   1.899       .  S
O263       Ni285   1.896       .  S
O263       Ni279   1.917       .  S
O263        H286   0.966       .  S
C264        O281   1.277       .  A
C264        O273   1.281       .  A
C264       C2648   1.491       .  S
O265       Ni284   1.945       .  S
O265        C271   1.277       .  A
O266       Ni284   1.905       .  S
O266        C268   1.268       .  A
Ni267       O270   1.915       .  S
Ni267       O272   1.902       .  S
C268        O278   1.276       .  A
C268       C2448   1.486       .  S
O269       Ni285   1.935       .  S
O269        C275   1.281       .  A
O270        C275   1.277       .  A
C271       C2321   1.498       .  S
O272        C274   1.267       .  A
O273       Ni284   1.943       .  S
C274        O280   1.274       .  A
C274       C2421   1.501       .  S
C275       C2661   1.495       .  S
H276        O277   0.966       .  S
O277       Ni285   1.920       .  S
O277       Ni279   1.917       .  S
O277       Ni284   1.903       .  S
O278       Ni279   1.947       .  S
Ni279       O283   1.926       .  S
Ni279       O281   1.920       .  S
O280       Ni285   1.944       .  S
C282        O283   1.270       .  A
C282       C2341   1.480       .  S
O287       Ni293   1.952       .  S
O287        C308   1.278       .  A
O288       Ni311   1.940       .  S
O288        C297   1.274       .  A
O289       Ni293   1.895       .  S
O289       Ni311   1.911       .  S
O289       Ni305   1.909       .  S
O289        H312   0.966       .  S
C290        O307   1.282       .  A
C290        O299   1.278       .  A
C290       C2488   1.484       .  S
O291       Ni310   1.895       .  S
O291        C297   1.261       .  A
O292       Ni310   1.907       .  S
O292        C294   1.265       .  A
Ni293       O296   1.939       .  S
Ni293       O298   1.904       .  S
C294        O304   1.267       .  A
C294       C2381   1.471       .  S
O295       Ni311   1.920       .  S
O295        C301   1.280       .  A
O296        C301   1.282       .  A
C297       C2348   1.486       .  S
O298        C300   1.270       .  A
O299       Ni310   1.911       .  S
C300        O306   1.276       .  A
C300       C2368   1.486       .  S
C301       C2508   1.491       .  S
H302        O303   0.965       .  S
O303       Ni311   1.926       .  S
O303       Ni305   1.882       .  S
O303       Ni310   1.895       .  S
O304       Ni305   1.928       .  S
Ni305       O309   1.888       .  S
Ni305       O307   1.937       .  S
O306       Ni311   1.941       .  S
C308        O309   1.265       .  A
C308       C2688   1.491       .  S
O313       Ni319   1.911       .  S
O313        C334   1.263       .  A
O314       Ni337   1.902       .  S
O314        C323   1.268       .  A
O315       Ni319   1.902       .  S
O315       Ni337   1.903       .  S
O315       Ni331   1.919       .  S
O315        H338   0.966       .  S
C316        O333   1.280       .  A
C316        O325   1.282       .  A
C316       C2268   1.489       .  S
O317       Ni336   1.956       .  S
O317        C323   1.279       .  A
O318       Ni336   1.911       .  S
O318        C320   1.271       .  A
Ni319       O322   1.914       .  S
Ni319       O324   1.897       .  S
C320        O330   1.274       .  A
C320       C2228   1.491       .  S
O321       Ni337   1.924       .  S
O321        C327   1.277       .  A
O322        C327   1.276       .  A
C323       C2728   1.501       .  S
O324        C326   1.266       .  A
O325       Ni336   1.935       .  S
C326        O332   1.272       .  A
C326       C2248   1.490       .  S
C327       C2281   1.487       .  S
H328        O329   0.966       .  S
O329       Ni337   1.903       .  S
O329       Ni331   1.914       .  S
O329       Ni336   1.897       .  S
O330       Ni331   1.936       .  S
Ni331       O335   1.938       .  S
Ni331       O333   1.921       .  S
O332       Ni337   1.932       .  S
C334        O335   1.273       .  A
C334       C2301   1.484       .  S
O339       Ni345   1.954       .  S
O339        C360   1.279       .  A
O340       Ni363   1.942       .  S
O340        C349   1.274       .  A
O341       Ni345   1.898       .  S
O341       Ni363   1.911       .  S
O341       Ni357   1.908       .  S
O341        H364   0.966       .  S
C342        O359   1.279       .  A
C342        O351   1.277       .  A
C342       C2188   1.489       .  S
O343       Ni362   1.906       .  S
O343        C349   1.263       .  A
O344       Ni362   1.904       .  S
O344        C346   1.267       .  A
Ni345       O348   1.948       .  S
Ni345       O350   1.907       .  S
C346        O356   1.271       .  A
C346       C2141   1.492       .  S
O347       Ni363   1.921       .  S
O347        C353   1.280       .  A
O348        C353   1.284       .  A
C349       C2308   1.494       .  S
O350        C352   1.268       .  A
O351       Ni362   1.915       .  S
C352        O358   1.274       .  A
C352       C2128   1.480       .  S
C353       C2161   1.488       .  S
H354        O355   0.965       .  S
O355       Ni363   1.924       .  S
O355       Ni357   1.893       .  S
O355       Ni362   1.893       .  S
O356       Ni357   1.929       .  S
Ni357       O361   1.889       .  S
Ni357       O359   1.937       .  S
O358       Ni363   1.937       .  S
C360        O361   1.265       .  A
C360       C2201   1.492       .  S
O365       Ni371   1.919       .  S
O365        C386   1.268   1_545  A
O366       Ni389   1.899       .  S
O366        C375   1.267       .  A
O367       Ni371   1.899       .  S
O367       Ni389   1.897       .  S
O367       Ni383   1.918   1_545  S
O367        H390   0.977       .  S
C368        O385   1.279       .  A
C368        O377   1.279       .  A
C368       C2081   1.494       .  S
O369       Ni388   1.943       .  S
O369        C375   1.275   1_565  A
O370       Ni388   1.903       .  S
O370        C372   1.270       .  A
Ni371       O374   1.921       .  S
Ni371       O376   1.906       .  S
C372        O382   1.275       .  A
C372       C2261   1.487       .  S
O373       Ni389   1.927       .  S
O373        C379   1.279       .  A
O374        C379   1.278       .  A
C375       C3088   1.493       .  S
O376        C378   1.268       .  A
O377       Ni388   1.929       .  S
C378        O384   1.269       .  A
C378       C2288   1.478       .  S
C379       C2101   1.483       .  S
H380        O381   0.963       .  S
O381       Ni389   1.909   1_565  S
O381       Ni383   1.912       .  S
O381       Ni388   1.898       .  S
O382       Ni383   1.936       .  S
Ni383       O387   1.931       .  S
Ni383       O385   1.922       .  S
O384       Ni389   1.924       .  S
C386        O387   1.273       .  A
C386       C2061   1.488       .  S
O391       Ni397   1.958       .  S
O391        C412   1.279   1_545  A
O392       Ni415   1.948       .  S
O392        C401   1.276   1_545  A
O393       Ni397   1.892       .  S
O393       Ni415   1.917       .  S
O393       Ni409   1.906   1_545  S
O393        H416   0.966       .  S
C394        O411   1.278       .  A
C394        O403   1.278       .  A
C394       C2001   1.489       .  S
O395       Ni414   1.905       .  S
O395        C401   1.262       .  A
O396       Ni414   1.898       .  S
O396        C398   1.266       .  A
Ni397       O400   1.939       .  S
Ni397       O402   1.904       .  S
C398        O408   1.273       .  A
C398       C2181   1.492       .  S
O399       Ni415   1.927       .  S
O399        C405   1.282       .  A
O400        C405   1.283       .  A
C401       C2068   1.492       .  S
O402        C404   1.270       .  A
O403       Ni414   1.918       .  S
C404        O410   1.277       .  A
C404       C2168   1.488       .  S
C405       C2028   1.499       .  S
H406        O407   0.967       .  S
O407       Ni415   1.926   1_565  S
O407       Ni409   1.898       .  S
O407       Ni414   1.895       .  S
O408       Ni409   1.937       .  S
Ni409       O413   1.904       .  S
Ni409       O411   1.927       .  S
O410       Ni415   1.946       .  S
C412        O413   1.268       .  A
C412       C2041   1.504       .  S
O417       Ni423   1.915       .  S
O417        C438   1.266       .  A
O418       Ni441   1.901       .  S
O418        C427   1.269       .  A
O419       Ni423   1.897       .  S
O419       Ni441   1.901       .  S
O419       Ni435   1.919   1_655  S
O419        H442   0.968       .  S
C420        O437   1.282       .  A
C420        O429   1.282       .  A
C420       C2221   1.492       .  S
O421       Ni440   1.949       .  S
O421        C427   1.277   1_455  A
O422       Ni440   1.901       .  S
O422        C424   1.268       .  A
Ni423       O426   1.918       .  S
Ni423       O428   1.903       .  S
C424        O434   1.272       .  A
C424       C2088   1.477       .  S
O425       Ni441   1.921       .  S
O425        C431   1.275       .  A
O426        C431   1.276       .  A
C427       C2868   1.499       .  S
O428        C430   1.268       .  A
O429       Ni440   1.934       .  S
C430        O436   1.275       .  A
C430       C2108   1.496       .  S
C431       C2241   1.473       .  S
H432        O433   0.966   1_655  S
O433       Ni441   1.905   1_455  S
O433       Ni435   1.911       .  S
O433       Ni440   1.897       .  S
O434       Ni435   1.930       .  S
Ni435       O439   1.932       .  S
Ni435       O437   1.931       .  S
O436       Ni441   1.938       .  S
C438        O439   1.272   1_655  A
C438       C1988   1.477   1_655  S
O443       Ni449   1.952       .  S
O443        C464   1.277   1_655  A
O444       Ni467   1.940       .  S
O444        C453   1.277       .  A
O445       Ni449   1.891       .  S
O445       Ni467   1.915       .  S
O445       Ni461   1.907   1_655  S
O445        H468   0.967       .  S
C446        O463   1.279       .  A
C446        O455   1.277       .  A
C446       C2148   1.483       .  S
O447       Ni466   1.914       .  S
O447        C453   1.267   1_455  A
O448       Ni466   1.909       .  S
O448        C450   1.268       .  A
Ni449       O452   1.934       .  S
Ni449       O454   1.901       .  S
C450        O460   1.271       .  A
C450       C2008   1.480       .  S
O451       Ni467   1.929       .  S
O451        C457   1.281       .  A
O452        C457   1.281       .  A
C453       C1981   1.497       .  S
O454        C456   1.270       .  A
O455       Ni466   1.916       .  S
C456        O462   1.278       .  A
C456       C2021   1.489       .  S
C457       C2121   1.492       .  S
H458        O459   0.966   1_655  S
O459       Ni467   1.922   1_455  S
O459       Ni461   1.897       .  S
O459       Ni466   1.893       .  S
O460       Ni461   1.926       .  S
Ni461       O465   1.907       .  S
Ni461       O463   1.932       .  S
O462       Ni467   1.949       .  S
C464        O465   1.267       .  A
C464       C1961   1.483       .  S
O469       Ni475   1.896       .  S
O469        C490   1.259       .  A
O470       Ni493   1.893       .  S
O470        C479   1.266       .  A
O471       Ni475   1.885       .  S
O471       Ni493   1.889       .  S
O471       Ni487   1.923       .  S
O471        H494   0.965       .  S
C472        O489   1.282       .  A
C472        O481   1.284       .  A
C472       C1908   1.485       .  S
O473       Ni492   1.959       .  S
O473        C479   1.281       .  A
O474       Ni492   1.909       .  S
O474        C476   1.271       .  A
Ni475       O478   1.907       .  S
Ni475       O480   1.903       .  S
C476        O486   1.278       .  A
C476       C1868   1.491       .  S
O477       Ni493   1.939       .  S
O477        C483   1.281       .  A
O478        C483   1.276       .  A
C479       C1948   1.498       .  S
O480        C482   1.266       .  A
O481       Ni492   1.938       .  S
C482        O488   1.269       .  A
C482       C1848   1.483       .  S
C483       C1881   1.476       .  S
H484        O485   0.966       .  S
O485       Ni493   1.904       .  S
O485       Ni487   1.913       .  S
O485       Ni492   1.886       .  S
O486       Ni487   1.947       .  S
Ni487       O491   1.954       .  S
Ni487       O489   1.923       .  S
O488       Ni493   1.929       .  S
C490        O491   1.278       .  A
C490       C1921   1.496       .  S
O495       Ni501   1.948       .  S
O495        C516   1.277       .  A
O496       Ni519   1.930       .  S
O496        C505   1.272       .  A
O497       Ni501   1.897       .  S
O497       Ni519   1.915       .  S
O497       Ni513   1.905       .  S
O497        H520   0.966       .  S
C498        O515   1.276       .  A
C498        O507   1.278       .  A
C498       C1828   1.491       .  S
O499       Ni518   1.923       .  S
O499        C505   1.267       .  A
O500       Ni518   1.902       .  S
O500        C502   1.267       .  A
Ni501       O504   1.933       .  S
Ni501       O506   1.904       .  S
C502        O512   1.271       .  A
C502       C1788   1.476       .  S
O503       Ni519   1.923       .  S
O503        C509   1.279       .  A
O504        C509   1.281       .  A
C505       C1928   1.480       .  S
O506        C508   1.269       .  A
O507       Ni518   1.924       .  S
C508        O514   1.275       .  A
C508       C1768   1.482   1_455  S
C509       C1808   1.495       .  S
H510        O511   0.966       .  S
O511       Ni519   1.919       .  S
O511       Ni513   1.907       .  S
O511       Ni518   1.908       .  S
O512       Ni513   1.931       .  S
Ni513       O517   1.914       .  S
Ni513       O515   1.920       .  S
O514       Ni519   1.939       .  S
C516        O517   1.269       .  A
C516       C1968   1.492       .  S
O521       Ni527   1.912       .  S
O521        C542   1.265       .  A
O522       Ni545   1.901       .  S
O522        C531   1.267       .  A
O523       Ni527   1.900       .  S
O523       Ni545   1.895       .  S
O523       Ni539   1.923       .  S
O523        H546   0.966       .  S
C524        O541   1.282       .  A
C524        O533   1.280       .  A
C524       C1688   1.497       .  S
O525       Ni544   1.945       .  S
O525        C531   1.275       .  A
O526       Ni544   1.898       .  S
O526        C528   1.269       .  A
Ni527       O530   1.918       .  S
Ni527       O532   1.904       .  S
C528        O538   1.277       .  A
C528       C1901   1.483       .  S
O529       Ni545   1.923       .  S
O529        C535   1.277       .  A
O530        C535   1.276       .  A
C531       C1741   1.493       .  S
O532        C534   1.267       .  A
O533       Ni544   1.927       .  S
C534        O540   1.270       .  A
C534       C1888   1.487       .  S
C535       C1708   1.477   1_455  S
H536        O537   0.966       .  S
O537       Ni545   1.912       .  S
O537       Ni539   1.913       .  S
O537       Ni544   1.894       .  S
O538       Ni539   1.939       .  S
Ni539       O543   1.933       .  S
Ni539       O541   1.935       .  S
O540       Ni545   1.923       .  S
C542        O543   1.274       .  A
C542       C1728   1.482       .  S
O547       Ni553   1.963       .  S
O547        C568   1.280       .  A
O548       Ni571   1.944       .  S
O548        C557   1.276       .  A
O549       Ni553   1.897       .  S
O549       Ni571   1.918       .  S
O549       Ni565   1.911       .  S
O549        H572   0.966       .  S
C550        O567   1.277       .  A
C550        O559   1.277       .  A
C550       C1661   1.477       .  S
O551       Ni570   1.903       .  S
O551        C557   1.263       .  A
O552       Ni570   1.907       .  S
O552        C554   1.268       .  A
Ni553       O556   1.944       .  S
Ni553       O558   1.903       .  S
C554        O564   1.273       .  A
C554       C1821   1.484       .  S
O555       Ni571   1.929       .  S
O555        C561   1.282       .  A
O556        C561   1.284       .  A
C557       C1721   1.490       .  S
O558        C560   1.270       .  A
O559       Ni570   1.918       .  S
C560        O566   1.276       .  A
C560       C1801   1.491       .  S
C561       C1641   1.496       .  S
H562        O563   0.967       .  S
O563       Ni571   1.926       .  S
O563       Ni565   1.889       .  S
O563       Ni570   1.894       .  S
O564       Ni565   1.935       .  S
Ni565       O569   1.899       .  S
Ni565       O567   1.925       .  S
O566       Ni571   1.940       .  S
C568        O569   1.268       .  A
C568       C2048   1.499       .  S
O573       Ni579   1.916       .  S
O573        C594   1.266       .  A
O574       Ni597   1.896       .  S
O574        C583   1.267       .  A
O575       Ni579   1.898       .  S
O575       Ni597   1.894       .  S
O575       Ni591   1.918       .  S
O575        H598   0.967       .  S
C576        O593   1.279       .  A
C576        O585   1.283       .  A
C576       C1861   1.501       .  S
O577       Ni596   1.954       .  S
O577        C583   1.280       .  A
O578       Ni596   1.912       .  S
O578        C580   1.270       .  A
Ni579       O582   1.919       .  S
Ni579       O584   1.902       .  S
C580        O590   1.274       .  A
C580       C1681   1.491       .  S
O581       Ni597   1.925       .  S
O581        C587   1.277       .  A
O582        C587   1.276       .  A
C583       C1608   1.498       .  S
O584        C586   1.267       .  A
O585       Ni596   1.942       .  S
C586        O592   1.272       .  A
C586       C1701   1.492       .  S
C587       C1841   1.491   1_565  S
H588        O589   0.966       .  S
O589       Ni597   1.902       .  S
O589       Ni591   1.905       .  S
O589       Ni596   1.891       .  S
O590       Ni591   1.940       .  S
Ni591       O595   1.915       .  S
Ni591       O593   1.921       .  S
O592       Ni597   1.931       .  S
C594        O595   1.270       .  A
C594       C1628   1.472       .  S
O599       Ni605   1.939       .  S
O599        C620   1.275       .  A
O600       Ni623   1.926       .  S
O600        C609   1.269       .  A
O601       Ni605   1.890       .  S
O601       Ni623   1.907       .  S
O601       Ni617   1.910       .  S
O601        H624   0.966       .  S
C602        O619   1.280       .  A
C602        O611   1.276       .  A
C602       C1781   1.482       .  S
O603       Ni622   1.898       .  S
O603        C609   1.261       .  A
O604       Ni622   1.901       .  S
O604        C606   1.266       .  A
Ni605       O608   1.927       .  S
Ni605       O610   1.907       .  S
C606        O616   1.272       .  A
C606       C1668   1.494       .  S
O607       Ni623   1.928       .  S
O607        C613   1.281       .  A
O608        C613   1.280       .  A
C609       C1621   1.474       .  S
O610        C612   1.269       .  A
O611       Ni622   1.916       .  S
C612        O618   1.275       .  A
C612       C1648   1.480       .  S
C613       C1761   1.496       .  S
H614        O615   0.967       .  S
O615       Ni623   1.931       .  S
O615       Ni617   1.895       .  S
O615       Ni622   1.901       .  S
O616       Ni617   1.935       .  S
Ni617       O621   1.901       .  S
Ni617       O619   1.932       .  S
O618       Ni623   1.938       .  S
C620        O621   1.269       .  A
C620       C2208   1.490       .  S
O625       Ni631   1.896       .  S
O625        C646   1.260       .  A
O626       Ni649   1.895       .  S
O626        C635   1.268       .  A
O627       Ni631   1.896       .  S
O627       Ni649   1.888       .  S
O627       Ni643   1.931       .  S
O627        H650   0.968       .  S
C628        O645   1.280       .  A
C628        O637   1.283       .  A
C628       C1528   1.495       .  S
O629       Ni648   1.953       .  S
O629        C635   1.280       .  A
O630       Ni648   1.909       .  S
O630        C632   1.271       .  A
Ni631       O634   1.914       .  S
Ni631       O636   1.903       .  S
C632        O642   1.277       .  A
C632       C1568   1.492       .  S
O633       Ni649   1.938       .  S
O633        C639   1.282       .  A
O634        C639   1.277       .  A
C635       C1748   1.496       .  S
O636        C638   1.266       .  A
O637       Ni648   1.940       .  S
C638        O644   1.272       .  A
C638       C1541   1.490       .  S
C639       C1508   1.482   1_655  S
H640        O641   0.966       .  S
O641       Ni649   1.914       .  S
O641       Ni643   1.906       .  S
O641       Ni648   1.892       .  S
O642       Ni643   1.944       .  S
Ni643       O647   1.928       .  S
Ni643       O645   1.925       .  S
O644       Ni649   1.934       .  S
C646        O647   1.271       .  A
C646       C1588   1.475       .  S
O651       Ni657   1.941       .  S
O651        C672   1.276       .  A
O652       Ni675   1.907       .  S
O652        C661   1.266       .  A
O653       Ni657   1.896       .  S
O653       Ni675   1.902       .  S
O653       Ni669   1.903       .  S
O653        H676   0.965       .  S
C654        O671   1.276       .  A
C654        O663   1.277       .  A
C654       C1461   1.478       .  S
O655       Ni674   1.916       .  S
O655        C661   1.265       .  A
O656       Ni674   1.899       .  S
O656        C658   1.267       .  A
Ni657       O660   1.933       .  S
Ni657       O662   1.904       .  S
C658        O668   1.273       .  A
C658       C1428   1.489       .  S
O659       Ni675   1.912       .  S
O659        C665   1.277       .  A
O660        C665   1.281       .  A
C661       C1581   1.467       .  S
O662        C664   1.268       .  A
O663       Ni674   1.921       .  S
C664        O670   1.273       .  A
C664       C1401   1.481       .  S
C665       C1448   1.490       .  S
H666        O667   0.975       .  S
O667       Ni675   1.918       .  S
O667       Ni669   1.895       .  S
O667       Ni674   1.903       .  S
O668       Ni669   1.934       .  S
Ni669       O673   1.895       .  S
Ni669       O671   1.916       .  S
O670       Ni675   1.936       .  S
C672        O673   1.268       .  A
C672       C1481   1.486       .  S
O677       Ni683   1.905       .  S
O677        C698   1.263       .  A
O678       Ni701   1.905       .  S
O678        C687   1.269       .  A
O679       Ni683   1.907       .  S
O679       Ni701   1.905       .  S
O679       Ni695   1.928       .  S
O679        H702   0.967       .  S
C680        O697   1.280       .  A
C680        O689   1.281       .  A
C680       C1361   1.490       .  S
O681       Ni700   1.949       .  S
O681        C687   1.278       .  A
O682       Ni700   1.909       .  S
O682        C684   1.270       .  A
Ni683       O686   1.919       .  S
Ni683       O688   1.904       .  S
C684        O694   1.275       .  A
C684       C1521   1.488       .  S
O685       Ni701   1.923       .  S
O685        C691   1.276       .  A
O686        C691   1.275       .  A
C687       C1941   1.499       .  S
O688        C690   1.268       .  A
O689       Ni700   1.931       .  S
C690        O696   1.272       .  A
C690       C1501   1.495       .  S
C691       C1388   1.482       .  S
H692        O693   0.967       .  S
O693       Ni701   1.901       .  S
O693       Ni695   1.911       .  S
O693       Ni700   1.894       .  S
O694       Ni695   1.939       .  S
Ni695       O699   1.936       .  S
Ni695       O697   1.920       .  S
O696       Ni701   1.933       .  S
C698        O699   1.271       .  A
C698       C1348   1.476       .  S
O703       Ni709   1.947       .  S
O703        C724   1.277       .  A
O704       Ni727   1.935       .  S
O704        C713   1.275       .  A
O705       Ni709   1.892       .  S
O705       Ni727   1.909       .  S
O705       Ni721   1.902       .  S
O705        H728   0.966       .  S
C706        O723   1.278       .  A
C706        O715   1.276       .  A
C706       C1301   1.477       .  S
O707       Ni726   1.909       .  S
O707        C713   1.265       .  A
O708       Ni726   1.905       .  S
O708        C710   1.267       .  A
Ni709       O712   1.933       .  S
Ni709       O714   1.906       .  S
C710        O720   1.272       .  A
C710       C1468   1.478       .  S
O711       Ni727   1.927       .  S
O711        C717   1.283       .  A
O712        C717   1.281       .  A
C713       C1341   1.480       .  S
O714        C716   1.269       .  A
O715       Ni726   1.915       .  S
C716        O722   1.273       .  A
C716       C1441   1.479       .  S
C717       C1281   1.495       .  S
H718        O719   0.966       .  S
O719       Ni727   1.919       .  S
O719       Ni721   1.888       .  S
O719       Ni726   1.890       .  S
O720       Ni721   1.929       .  S
Ni721       O725   1.892       .  S
Ni721       O723   1.927       .  S
O722       Ni727   1.930       .  S
C724        O725   1.267       .  A
C724       C1321   1.488       .  S
O729       Ni735   1.906       .  S
O729        C750   1.264       .  A
O730       Ni753   1.893       .  S
O730        C739   1.267       .  A
O731       Ni735   1.895       .  S
O731       Ni753   1.898       .  S
O731       Ni747   1.924       .  S
O731        H754   0.965       .  S
C732        O749   1.282       .  A
C732        O741   1.286       .  A
C732       C1561   1.490       .  S
O733       Ni752   1.966       .  S
O733        C739   1.282       .  A
O734       Ni752   1.909       .  S
O734        C736   1.269       .  A
Ni735       O738   1.916       .  S
Ni735       O740   1.909       .  S
C736        O746   1.273       .  A
C736       C1368   1.474       .  S
O737       Ni753   1.931       .  S
O737        C743   1.277       .  A
O738        C743   1.275       .  A
C739       C1601   1.501       .  S
O740        C742   1.269       .  A
O741       Ni752   1.950       .  S
C742        O748   1.270       .  A
C742       C1381   1.485       .  S
C743       C1548   1.476   1_545  S
H744        O745   0.966       .  S
O745       Ni753   1.902       .  S
O745       Ni747   1.913       .  S
O745       Ni752   1.892       .  S
O746       Ni747   1.931       .  S
Ni747       O751   1.949       .  S
Ni747       O749   1.923       .  S
O748       Ni753   1.923       .  S
C750        O751   1.277       .  A
C750       C1261   1.496       .  S
O755       Ni761   1.963       .  S
O755        C776   1.281       .  A
O756       Ni779   1.948       .  S
O756        C765   1.277       .  A
O757       Ni761   1.888       .  S
O757       Ni779   1.909       .  S
O757       Ni773   1.896       .  S
O757        H780   0.966       .  S
C758        O775   1.275       .  A
C758        O767   1.276       .  A
C758       C1421   1.474       .  S
O759       Ni778   1.907       .  S
O759        C765   1.264       .  A
O760       Ni778   1.906       .  S
O760        C762   1.267       .  A
Ni761       O764   1.938       .  S
Ni761       O766   1.907       .  S
C762        O772   1.268       .  A
C762       C1308   1.489       .  S
O763       Ni779   1.924       .  S
O763        C769   1.283       .  A
O764        C769   1.284       .  A
C765       C1268   1.490       .  S
O766        C768   1.271       .  A
O767       Ni778   1.917       .  S
C768        O774   1.278       .  A
C768       C1288   1.486       .  S
C769       C1408   1.498       .  S
H770        O771   0.966       .  S
O771       Ni779   1.921       .  S
O771       Ni773   1.898       .  S
O771       Ni778   1.899       .  S
O772       Ni773   1.921       .  S
Ni773       O777   1.893       .  S
Ni773       O775   1.922       .  S
O774       Ni779   1.941       .  S
C776        O777   1.265       .  A
C776       C1248   1.498       .  S
O781       Ni787   1.940       .  S
O781        C802   1.275       .  A
O782       Ni805   1.945       .  S
O782        C791   1.276       .  A
O783       Ni787   1.895       .  S
O783       Ni805   1.919       .  S
O783       Ni799   1.914       .  S
O783        H806   0.966       .  S
C784        O801   1.281       .  A
C784        O793   1.277       .  A
C784       C1148   1.489       .  S
O785       Ni804   1.904       .  S
O785        C791   1.263       .  A
O786       Ni804   1.906       .  S
O786        C788   1.267       .  A
Ni787       O790   1.933       .  S
Ni787       O792   1.904       .  S
C788        O798   1.272       .  A
C788       C1188   1.492       .  S
O789       Ni805   1.926       .  S
O789        C795   1.281       .  A
O790        C795   1.280       .  A
C791       C1228   1.490       .  S
O792        C794   1.268       .  A
O793       Ni804   1.914       .  S
C794        O800   1.276       .  A
C794       C1208   1.480       .  S
C795       C1161   1.496       .  S
H796        O797   0.967       .  S
O797       Ni805   1.925       .  S
O797       Ni799   1.893       .  S
O797       Ni804   1.891       .  S
O798       Ni799   1.932       .  S
Ni799       O803   1.898       .  S
Ni799       O801   1.941       .  S
O800       Ni805   1.944       .  S
C802        O803   1.267       .  A
C802       C1488   1.491       .  S
O807       Ni813   1.909       .  S
O807        C828   1.266       .  A
O808       Ni831   1.898       .  S
O808        C817   1.268       .  A
O809       Ni813   1.892       .  S
O809       Ni831   1.896       .  S
O809       Ni825   1.926       .  S
O809        H832   0.967       .  S
C810        O827   1.285       .  A
C810        O819   1.281       .  A
C810       C1068   1.495       .  S
O811       Ni830   1.943       .  S
O811        C817   1.277       .  A
O812       Ni830   1.905       .  S
O812        C814   1.270       .  A
Ni813       O816   1.920       .  S
Ni813       O818   1.906       .  S
C814        O824   1.279       .  A
C814       C1101   1.498       .  S
O815       Ni831   1.926       .  S
O815        C821   1.277       .  A
O816        C821   1.277       .  A
C817       C2568   1.489       .  S
O818        C820   1.268       .  A
O819       Ni830   1.925       .  S
C820        O826   1.273       .  A
C820       C1121   1.489       .  S
C821       C1088   1.478       .  S
H822        O823   0.966       .  S
O823       Ni831   1.903       .  S
O823       Ni825   1.906       .  S
O823       Ni830   1.886       .  S
O824       Ni825   1.948       .  S
Ni825       O829   1.945       .  S
Ni825       O827   1.938       .  S
O826       Ni831   1.936       .  S
C828        O829   1.278       .  A
C828       C1221   1.493       .  S
O833       Ni839   1.956       .  S
O833        C854   1.279   1_455  A
O834       Ni857   1.936       .  S
O834        C843   1.273       .  A
O835       Ni839   1.898       .  S
O835       Ni857   1.918       .  S
O835       Ni851   1.908   1_455  S
O835        H858   0.965       .  S
C836        O853   1.277       .  A
C836        O845   1.276       .  A
C836       C1001   1.478       .  S
O837       Ni856   1.904       .  S
O837        C843   1.263   1_655  A
O838       Ni856   1.910       .  S
O838        C840   1.268       .  A
Ni839       O842   1.938       .  S
Ni839       O844   1.905       .  S
C840        O850   1.271       .  A
C840       C1141   1.498       .  S
O841       Ni857   1.916       .  S
O841        C847   1.277       .  A
O842        C847   1.282       .  A
C843       C1048   1.481       .  S
O844        C846   1.270       .  A
O845       Ni856   1.914       .  S
C846        O852   1.278       .  A
C846       C1168   1.495       .  S
C847       C1028   1.492       .  S
H848        O849   0.973       .  S
O849       Ni857   1.918   1_655  S
O849       Ni851   1.894       .  S
O849       Ni856   1.901       .  S
O850       Ni851   1.931       .  S
Ni851       O855   1.899       .  S
Ni851       O853   1.922       .  S
O852       Ni857   1.946       .  S
C854        O855   1.266       .  A
C854       C1241   1.501       .  S
O859       Ni865   1.914       .  S
O859        C880   1.266       .  A
O860       Ni883   1.901       .  S
O860        C869   1.269       .  A
O861       Ni865   1.899       .  S
O861       Ni883   1.901       .  S
O861       Ni877   1.925   1_455  S
O861        H884   0.966       .  S
C862        O879   1.284       .  A
C862        O871   1.282       .  A
C862        C961   1.500       .  S
O863       Ni882   1.948       .  S
O863        C869   1.278   1_655  A
O864       Ni882   1.907       .  S
O864        C866   1.270       .  A
Ni865       O868   1.921       .  S
Ni865       O870   1.902       .  S
C866        O876   1.274       .  A
C866       C1061   1.487       .  S
O867       Ni883   1.924       .  S
O867        C873   1.276       .  A
O868        C873   1.277       .  A
C869       C2328   1.494       .  S
O870        C872   1.268       .  A
O871       Ni882   1.934       .  S
C872        O878   1.274       .  A
C872       C1081   1.483       .  S
C873        C981   1.479       .  S
H874        O875   0.966   1_455  S
O875       Ni883   1.903   1_655  S
O875       Ni877   1.906       .  S
O875       Ni882   1.892       .  S
O876       Ni877   1.936       .  S
Ni877       O881   1.930       .  S
Ni877       O879   1.933       .  S
O878       Ni883   1.935       .  S
C880        O881   1.273   1_455  A
C880       C1041   1.486       .  S
O885       Ni891   1.950       .  S
O885        C906   1.278   1_565  A
O886       Ni909   1.924       .  S
O886        C895   1.272       .  A
O887       Ni891   1.892       .  S
O887       Ni909   1.902       .  S
O887       Ni903   1.899   1_565  S
O887        H910   0.966       .  S
C888        O905   1.276       .  A
C888        O897   1.277       .  A
C888       C1181   1.482       .  S
O889       Ni908   1.918       .  S
O889        C895   1.266   1_545  A
O890       Ni908   1.896       .  S
O890        C892   1.266       .  A
Ni891       O894   1.931       .  S
Ni891       O896   1.907       .  S
C892        O902   1.271       .  A
C892       C1008   1.483       .  S
O893       Ni909   1.925       .  S
O893        C899   1.282       .  A
O894        C899   1.282       .  A
C895        C941   1.477       .  S
O896        C898   1.270       .  A
O897       Ni908   1.926       .  S
C898        O904   1.273       .  A
C898       C1021   1.485       .  S
C899       C1201   1.496       .  S
H900        O901   0.966       .  S
O901       Ni909   1.923   1_545  S
O901       Ni903   1.897       .  S
O901       Ni908   1.899       .  S
O902       Ni903   1.929       .  S
Ni903       O907   1.891       .  S
Ni903       O905   1.921       .  S
O904       Ni909   1.932       .  S
C906        O907   1.266       .  A
C906       C1328   1.492       .  S
O911       Ni917   1.903       .  S
O911        C932   1.262       .  A
O912       Ni935   1.889       .  S
O912        C921   1.265       .  A
O913       Ni917   1.899       .  S
O913       Ni935   1.890       .  S
O913       Ni929   1.926   1_565  S
O913        H936   0.966       .  S
C914        O931   1.279       .  A
C914        O923   1.283       .  A
C914       C1108   1.488       .  S
O915       Ni934   1.954       .  S
O915        C921   1.278   1_545  A
O916       Ni934   1.901       .  S
O916        C918   1.268       .  A
Ni917       O920   1.914       .  S
Ni917       O922   1.908       .  S
C918        O928   1.279       .  A
C918        C968   1.484       .  S
O919       Ni935   1.937       .  S
O919        C925   1.281       .  A
O920        C925   1.277       .  A
C921       C2401   1.494       .  S
O922        C924   1.267       .  A
O923       Ni934   1.946       .  S
C924        O930   1.270       .  A
C924        C988   1.485       .  S
C925       C1128   1.490       .  S
H926        O927   0.966       .  S
O927       Ni935   1.913   1_545  S
O927       Ni929   1.914       .  S
O927       Ni934   1.898       .  S
O928       Ni929   1.951       .  S
Ni929       O933   1.940       .  S
Ni929       O931   1.922       .  S
O930       Ni935   1.926       .  S
C932        O933   1.274   1_565  A
C932        C948   1.488       .  S
C937        C938   1.404   1_545  A
C937        C942   1.398       .  A
C937        F955   1.358       .  S
C938        C943   1.483   1_554  S
C938        C939   1.408       .  A
C939        C940   1.401       .  A
C939        F944   1.357       .  S
C940        C941   1.404       .  A
C940        F956   1.358       .  S
C941        C942   1.409   1_565  A
C942        F945   1.358       .  S
C943        C946   1.399       .  A
C943        C950   1.409   1_565  A
C946        C947   1.394       .  A
C946        F951   1.358       .  S
C947        C948   1.415       .  A
C947        F953   1.358       .  S
C948        C949   1.407   1_565  A
C949        C950   1.406       .  A
C949        F952   1.357       .  S
C950        F954   1.358       .  S
C957        C958   1.406       .  A
C957        C962   1.400       .  A
C957        F975   1.358       .  S
C958        C963   1.496       .  S
C958        C959   1.408       .  A
C959        C960   1.406       .  A
C959        F964   1.357       .  S
C960        C961   1.412       .  A
C960        F976   1.357       .  S
C961        C962   1.415       .  A
C962        F965   1.358       .  S
C963        C966   1.409       .  A
C963        C970   1.409       .  A
C966        C967   1.402       .  A
C966        F971   1.358       .  S
C967        C968   1.408       .  A
C967        F973   1.358       .  S
C968        C969   1.407       .  A
C969        C970   1.403       .  A
C969        F972   1.358       .  S
C970        F974   1.357       .  S
C977        C978   1.402       .  A
C977        C982   1.400       .  A
C977        F995   1.358       .  S
C978        C983   1.476       .  S
C978        C979   1.404       .  A
C979        C980   1.400       .  A
C979        F984   1.358       .  S
C980        C981   1.406       .  A
C980        F996   1.357       .  S
C981        C982   1.410       .  A
C982        F985   1.358       .  S
C983        C986   1.402       .  A
C983        C990   1.402       .  A
C986        C987   1.402       .  A
C986        F991   1.357       .  S
C987        C988   1.411       .  A
C987        F993   1.358       .  S
C988        C989   1.411       .  A
C989        C990   1.397       .  A
C989        F992   1.358       .  S
C990        F994   1.358       .  S
C997        C998   1.404       .  A
C997       C1002   1.397       .  A
C997       F1015   1.358       .  S
C998       C1003   1.471       .  S
C998        C999   1.400       .  A
C999       C1000   1.396       .  A
C999       F1004   1.358       .  S
C1000      C1001   1.409       .  A
C1000      F1016   1.356       .  S
C1001      C1002   1.409       .  A
C1002      F1005   1.358       .  S
C1003      C1006   1.403       .  A
C1003      C1010   1.400       .  A
C1006      C1007   1.403       .  A
C1006      F1011   1.357       .  S
C1007      C1008   1.412       .  A
C1007      F1013   1.357       .  S
C1008      C1009   1.412       .  A
C1009      C1010   1.390       .  A
C1009      F1012   1.359       .  S
C1010      F1014   1.359       .  S
C1017      C1018   1.403       .  A
C1017      C1022   1.398       .  A
C1017      F1035   1.358       .  S
C1018      C1023   1.481       .  S
C1018      C1019   1.404       .  A
C1019      C1020   1.404       .  A
C1019      F1024   1.358       .  S
C1020      C1021   1.412       .  A
C1020      F1036   1.358       .  S
C1021      C1022   1.408       .  A
C1022      F1025   1.358       .  S
C1023      C1026   1.404       .  A
C1023      C1030   1.401       .  A
C1026      C1027   1.407       .  A
C1026      F1031   1.357       .  S
C1027      C1028   1.414       .  A
C1027      F1033   1.358       .  S
C1028      C1029   1.412       .  A
C1029      C1030   1.395       .  A
C1029      F1032   1.358       .  S
C1030      F1034   1.358       .  S
C1037      C1038   1.402       .  A
C1037      C1042   1.398       .  A
C1037      F1055   1.358       .  S
C1038      C1043   1.483   1_556  S
C1038      C1039   1.408   1_455  A
C1039      C1040   1.403       .  A
C1039      F1044   1.358       .  S
C1040      C1041   1.408   1_655  A
C1040      F1056   1.358       .  S
C1041      C1042   1.412       .  A
C1042      F1045   1.358       .  S
C1043      C1046   1.410       .  A
C1043      C1050   1.401   1_455  A
C1046      C1047   1.406       .  A
C1046      F1051   1.357       .  S
C1047      C1048   1.405       .  A
C1047      F1053   1.358       .  S
C1048      C1049   1.410   1_455  A
C1049      C1050   1.395       .  A
C1049      F1052   1.359       .  S
C1050      F1054   1.358       .  S
C1057      C1058   1.405       .  A
C1057      C1062   1.405       .  A
C1057      F1075   1.358       .  S
C1058      C1063   1.486       .  S
C1058      C1059   1.406       .  A
C1059      C1060   1.399       .  A
C1059      F1064   1.358       .  S
C1060      C1061   1.408       .  A
C1060      F1076   1.358       .  S
C1061      C1062   1.411       .  A
C1062      F1065   1.358       .  S
C1063      C1066   1.406       .  A
C1063      C1070   1.403       .  A
C1066      C1067   1.408       .  A
C1066      F1071   1.357       .  S
C1067      C1068   1.412       .  A
C1067      F1073   1.357       .  S
C1068      C1069   1.413       .  A
C1069      C1070   1.395       .  A
C1069      F1072   1.358       .  S
C1070      F1074   1.359       .  S
C1077      C1078   1.405       .  A
C1077      C1082   1.406       .  A
C1077      F1095   1.357       .  S
C1078      C1083   1.476       .  S
C1078      C1079   1.401       .  A
C1079      C1080   1.392       .  A
C1079      F1084   1.359       .  S
C1080      C1081   1.410       .  A
C1080      F1096   1.358       .  S
C1081      C1082   1.410       .  A
C1082      F1085   1.357       .  S
C1083      C1086   1.404       .  A
C1083      C1090   1.403       .  A
C1086      C1087   1.399       .  A
C1086      F1091   1.358       .  S
C1087      C1088   1.409       .  A
C1087      F1093   1.358       .  S
C1088      C1089   1.406       .  A
C1089      C1090   1.400       .  A
C1089      F1092   1.357       .  S
C1090      F1094   1.357       .  S
C1097      C1098   1.402       .  A
C1097      C1102   1.400       .  A
C1097      F1115   1.358       .  S
C1098      C1103   1.487       .  S
C1098      C1099   1.405       .  A
C1099      C1100   1.408       .  A
C1099      F1104   1.357       .  S
C1100      C1101   1.413       .  A
C1100      F1116   1.357       .  S
C1101      C1102   1.414       .  A
C1102      F1105   1.358       .  S
C1103      C1106   1.404       .  A
C1103      C1110   1.407       .  A
C1106      C1107   1.399       .  A
C1106      F1111   1.358       .  S
C1107      C1108   1.408       .  A
C1107      F1113   1.358       .  S
C1108      C1109   1.411       .  A
C1109      C1110   1.409       .  A
C1109      F1112   1.358       .  S
C1110      F1114   1.357       .  S
C1117      C1118   1.404       .  A
C1117      C1122   1.406       .  A
C1117      F1135   1.357       .  S
C1118      C1123   1.479       .  S
C1118      C1119   1.402       .  A
C1119      C1120   1.395       .  A
C1119      F1124   1.359       .  S
C1120      C1121   1.412       .  A
C1120      F1136   1.358       .  S
C1121      C1122   1.412       .  A
C1122      F1125   1.357       .  S
C1123      C1126   1.402       .  A
C1123      C1130   1.403       .  A
C1126      C1127   1.401       .  A
C1126      F1131   1.358       .  S
C1127      C1128   1.412       .  A
C1127      F1133   1.355       .  S
C1128      C1129   1.411       .  A
C1129      C1130   1.399       .  A
C1129      F1132   1.358       .  S
C1130      F1134   1.358       .  S
C1137      C1138   1.406       .  A
C1137      C1142   1.406       .  A
C1137      F1155   1.357       .  S
C1138      C1143   1.490       .  S
C1138      C1139   1.405       .  A
C1139      C1140   1.397       .  A
C1139      F1144   1.359       .  S
C1140      C1141   1.413       .  A
C1140      F1156   1.358       .  S
C1141      C1142   1.415       .  A
C1142      F1145   1.357       .  S
C1143      C1146   1.406       .  A
C1143      C1150   1.407       .  A
C1146      C1147   1.399       .  A
C1146      F1151   1.358       .  S
C1147      C1148   1.410       .  A
C1147      F1153   1.358       .  S
C1148      C1149   1.411       .  A
C1149      C1150   1.403       .  A
C1149      F1152   1.358       .  S
C1150      F1154   1.357       .  S
C1157      C1158   1.406       .  A
C1157      C1162   1.408       .  A
C1157      F1175   1.357       .  S
C1158      C1163   1.485       .  S
C1158      C1159   1.402       .  A
C1159      C1160   1.396       .  A
C1159      F1164   1.359       .  S
C1160      C1161   1.415       .  A
C1160      F1176   1.358       .  S
C1161      C1162   1.412       .  A
C1162      F1165   1.357       .  S
C1163      C1166   1.404       .  A
C1163      C1170   1.404       .  A
C1166      C1167   1.400       .  A
C1166      F1171   1.358       .  S
C1167      C1168   1.413       .  A
C1167      F1173   1.358       .  S
C1168      C1169   1.413       .  A
C1169      C1170   1.405       .  A
C1169      F1172   1.357       .  S
C1170      F1174   1.357       .  S
C1177      C1178   1.401       .  A
C1177      C1182   1.399       .  A
C1177      F1195   1.358       .  S
C1178      C1183   1.478       .  S
C1178      C1179   1.406       .  A
C1179      C1180   1.402       .  A
C1179      F1184   1.358       .  S
C1180      C1181   1.407       .  A
C1180      F1196   1.358       .  S
C1181      C1182   1.411       .  A
C1182      F1185   1.357       .  S
C1183      C1186   1.400       .  A
C1183      C1190   1.404       .  A
C1186      C1187   1.394       .  A
C1186      F1191   1.358       .  S
C1187      C1188   1.414       .  A
C1187      F1193   1.358       .  S
C1188      C1189   1.414       .  A
C1189      C1190   1.406       .  A
C1189      F1192   1.358       .  S
C1190      F1194   1.357       .  S
C1197      C1198   1.403       .  A
C1197      C1202   1.405       .  A
C1197      F1215   1.357       .  S
C1198      C1203   1.480       .  S
C1198      C1199   1.401       .  A
C1199      C1200   1.395       .  A
C1199      F1204   1.359       .  S
C1200      C1201   1.415       .  A
C1200      F1216   1.358       .  S
C1201      C1202   1.415       .  A
C1202      F1205   1.357       .  S
C1203      C1206   1.404       .  A
C1203      C1210   1.404       .  A
C1206      C1207   1.400       .  A
C1206      F1211   1.358       .  S
C1207      C1208   1.408       .  A
C1207      F1213   1.358       .  S
C1208      C1209   1.409       .  A
C1209      C1210   1.401       .  A
C1209      F1212   1.358       .  S
C1210      F1214   1.358       .  S
C1217      C1218   1.402       .  A
C1217      C1222   1.397       .  A
C1217      F1235   1.358       .  S
C1218      C1223   1.493   1_556  S
C1218      C1219   1.412       .  A
C1219      C1220   1.408       .  A
C1219      F1224   1.358       .  S
C1220      C1221   1.408       .  A
C1220      F1236   1.357       .  S
C1221      C1222   1.415       .  A
C1222      F1225   1.358       .  S
C1223      C1226   1.413       .  A
C1223      C1230   1.402       .  A
C1226      C1227   1.408       .  A
C1226      F1231   1.358       .  S
C1227      C1228   1.406       .  A
C1227      F1233   1.357       .  S
C1228      C1229   1.414       .  A
C1229      C1230   1.397       .  A
C1229      F1232   1.358       .  S
C1230      F1234   1.358       .  S
C1237      C1238   1.405       .  A
C1237      C1242   1.403       .  A
C1237      F1255   1.358   1_655  S
C1238      C1243   1.491       .  S
C1238      C1239   1.405       .  A
C1239      C1240   1.403       .  A
C1239      F1244   1.358       .  S
C1240      C1241   1.415       .  A
C1240      F1256   1.357       .  S
C1241      C1242   1.413       .  A
C1242      F1245   1.357   1_655  S
C1243      C1246   1.403       .  A
C1243      C1250   1.407       .  A
C1246      C1247   1.402       .  A
C1246      F1251   1.358       .  S
C1247      C1248   1.415       .  A
C1247      F1253   1.356       .  S
C1248      C1249   1.410       .  A
C1249      C1250   1.405       .  A
C1249      F1252   1.357       .  S
C1250      F1254   1.358       .  S
C1257      C1258   1.401       .  A
C1257      C1262   1.396       .  A
C1257      F1275   1.358       .  S
C1258      C1263   1.495       .  S
C1258      C1259   1.414       .  A
C1259      C1260   1.410       .  A
C1259      F1264   1.358       .  S
C1260      C1261   1.408       .  A
C1260      F1276   1.357       .  S
C1261      C1262   1.416       .  A
C1262      F1265   1.358       .  S
C1263      C1266   1.403       .  A
C1263      C1270   1.414       .  A
C1266      C1267   1.398       .  A
C1266      F1271   1.358       .  S
C1267      C1268   1.413       .  A
C1267      F1273   1.358       .  S
C1268      C1269   1.406       .  A
C1269      C1270   1.408       .  A
C1269      F1272   1.358       .  S
C1270      F1274   1.358       .  S
C1277      C1278   1.401       .  A
C1277      C1282   1.397       .  A
C1277      F1295   1.359       .  S
C1278      C1283   1.483       .  S
C1278      C1279   1.404       .  A
C1279      C1280   1.406       .  A
C1279      F1284   1.357       .  S
C1280      C1281   1.412       .  A
C1280      F1296   1.357       .  S
C1281      C1282   1.416       .  A
C1282      F1285   1.359       .  S
C1283      C1286   1.404       .  A
C1283      C1290   1.404       .  A
C1286      C1287   1.403   1_455  A
C1286      F1291   1.358       .  S
C1287      C1288   1.410       .  A
C1287      F1293   1.358       .  S
C1288      C1289   1.409   1_655  A
C1289      C1290   1.401       .  A
C1289      F1292   1.358       .  S
C1290      F1294   1.358       .  S
C1297      C1298   1.401       .  A
C1297      C1302   1.395       .  A
C1297      F1315   1.358       .  S
C1298      C1303   1.473       .  S
C1298      C1299   1.404       .  A
C1299      C1300   1.400       .  A
C1299      F1304   1.358       .  S
C1300      C1301   1.407       .  A
C1300      F1316   1.358       .  S
C1301      C1302   1.410       .  A
C1302      F1305   1.357       .  S
C1303      C1306   1.400       .  A
C1303      C1310   1.401       .  A
C1306      C1307   1.394       .  A
C1306      F1311   1.358       .  S
C1307      C1308   1.413       .  A
C1307      F1313   1.358       .  S
C1308      C1309   1.415       .  A
C1309      C1310   1.401       .  A
C1309      F1312   1.358       .  S
C1310      F1314   1.358       .  S
C1317      C1318   1.405       .  A
C1317      C1322   1.401       .  A
C1317      F1335   1.358       .  S
C1318      C1323   1.483       .  S
C1318      C1319   1.404       .  A
C1319      C1320   1.396       .  A
C1319      F1324   1.358       .  S
C1320      C1321   1.411       .  A
C1320      F1336   1.356       .  S
C1321      C1322   1.411       .  A
C1322      F1325   1.358       .  S
C1323      C1326   1.403       .  A
C1323      C1330   1.405       .  A
C1326      C1327   1.397       .  A
C1326      F1331   1.358       .  S
C1327      C1328   1.413       .  A
C1327      F1333   1.357       .  S
C1328      C1329   1.413       .  A
C1329      C1330   1.401       .  A
C1329      F1332   1.358   1_545  S
C1330      F1334   1.358   1_545  S
C1337      C1338   1.407       .  A
C1337      C1342   1.404       .  A
C1337      F1355   1.358       .  S
C1338      C1343   1.477       .  S
C1338      C1339   1.399       .  A
C1339      C1340   1.397       .  A
C1339      F1344   1.358       .  S
C1340      C1341   1.412       .  A
C1340      F1356   1.358       .  S
C1341      C1342   1.406       .  A
C1342      F1345   1.358       .  S
C1343      C1346   1.408       .  A
C1343      C1350   1.399       .  A
C1346      C1347   1.406       .  A
C1346      F1351   1.358       .  S
C1347      C1348   1.405       .  A
C1347      F1353   1.357       .  S
C1348      C1349   1.408       .  A
C1349      C1350   1.394       .  A
C1349      F1352   1.358       .  S
C1350      F1354   1.358       .  S
C1357      C1358   1.407       .  A
C1357      C1362   1.404       .  A
C1357      F1375   1.358       .  S
C1358      C1363   1.486       .  S
C1358      C1359   1.404       .  A
C1359      C1360   1.394       .  A
C1359      F1364   1.358       .  S
C1360      C1361   1.413       .  A
C1360      F1376   1.358       .  S
C1361      C1362   1.411       .  A
C1362      F1365   1.358       .  S
C1363      C1366   1.405       .  A
C1363      C1370   1.410       .  A
C1366      C1367   1.397       .  A
C1366      F1371   1.358       .  S
C1367      C1368   1.407       .  A
C1367      F1373   1.359       .  S
C1368      C1369   1.404       .  A
C1369      C1370   1.401       .  A
C1369      F1372   1.358       .  S
C1370      F1374   1.358       .  S
C1377      C1378   1.406       .  A
C1377      C1382   1.394   1_455  A
C1377      F1395   1.358       .  S
C1378      C1383   1.488       .  S
C1378      C1379   1.408       .  A
C1379      C1380   1.402   1_455  A
C1379      F1384   1.358       .  S
C1380      C1381   1.410       .  A
C1380      F1396   1.358       .  S
C1381      C1382   1.410       .  A
C1382      F1385   1.358       .  S
C1383      C1386   1.409       .  A
C1383      C1390   1.406       .  A
C1386      C1387   1.401       .  A
C1386      F1391   1.358       .  S
C1387      C1388   1.407       .  A
C1387      F1393   1.358       .  S
C1388      C1389   1.408       .  A
C1389      C1390   1.397       .  A
C1389      F1392   1.356       .  S
C1390      F1394   1.358       .  S
C1397      C1398   1.408       .  A
C1397      C1402   1.400       .  A
C1397      F1415   1.358       .  S
C1398      C1403   1.489       .  S
C1398      C1399   1.407       .  A
C1399      C1400   1.402       .  A
C1399      F1404   1.358       .  S
C1400      C1401   1.409       .  A
C1400      F1416   1.358       .  S
C1401      C1402   1.406       .  A
C1402      F1405   1.358       .  S
C1403      C1406   1.406       .  A
C1403      C1410   1.405       .  A
C1406      C1407   1.405   1_565  A
C1406      F1411   1.358       .  S
C1407      C1408   1.415       .  A
C1407      F1413   1.358       .  S
C1408      C1409   1.414   1_545  A
C1409      C1410   1.396       .  A
C1409      F1412   1.358   1_565  S
C1410      F1414   1.358       .  S
C1417      C1418   1.406       .  A
C1417      C1422   1.398       .  A
C1417      F1435   1.358       .  S
C1418      C1423   1.486       .  S
C1418      C1419   1.409       .  A
C1419      C1420   1.398       .  A
C1419      F1424   1.358       .  S
C1420      C1421   1.403       .  A
C1420      F1436   1.358       .  S
C1421      C1422   1.408       .  A
C1422      F1425   1.358       .  S
C1423      C1426   1.404       .  A
C1423      C1430   1.408       .  A
C1426      C1427   1.391       .  A
C1426      F1431   1.359       .  S
C1427      C1428   1.412       .  A
C1427      F1433   1.358       .  S
C1428      C1429   1.412       .  A
C1429      C1430   1.405       .  A
C1429      F1432   1.358       .  S
C1430      F1434   1.358       .  S
C1437      C1438   1.405       .  A
C1437      C1442   1.399   1_565  A
C1437      F1455   1.358       .  S
C1438      C1443   1.484       .  S
C1438      C1439   1.407       .  A
C1439      C1440   1.398       .  A
C1439      F1444   1.358       .  S
C1440      C1441   1.406   1_565  A
C1440      F1456   1.358       .  S
C1441      C1442   1.410       .  A
C1442      F1445   1.358       .  S
C1443      C1446   1.404       .  A
C1443      C1450   1.405       .  A
C1446      C1447   1.394   1_455  A
C1446      F1451   1.358       .  S
C1447      C1448   1.412       .  A
C1447      F1453   1.358       .  S
C1448      C1449   1.414       .  A
C1449      C1450   1.402   1_655  A
C1449      F1452   1.358       .  S
C1450      F1454   1.358       .  S
C1457      C1458   1.399       .  A
C1457      C1462   1.394       .  A
C1457      F1475   1.358       .  S
C1458      C1463   1.471       .  S
C1458      C1459   1.404       .  A
C1459      C1460   1.401       .  A
C1459      F1464   1.358       .  S
C1460      C1461   1.408       .  A
C1460      F1476   1.358       .  S
C1461      C1462   1.410       .  A
C1462      F1465   1.357       .  S
C1463      C1466   1.401       .  A
C1463      C1470   1.403       .  A
C1466      C1467   1.394       .  A
C1466      F1471   1.359       .  S
C1467      C1468   1.410       .  A
C1467      F1473   1.359       .  S
C1468      C1469   1.409       .  A
C1469      C1470   1.402       .  A
C1469      F1472   1.357       .  S
C1470      F1474   1.357       .  S
C1477      C1478   1.402       .  A
C1477      C1482   1.397       .  A
C1477      F1495   1.358       .  S
C1478      C1483   1.482       .  S
C1478      C1479   1.407       .  A
C1479      C1480   1.400       .  A
C1479      F1484   1.358       .  S
C1480      C1481   1.410       .  A
C1480      F1496   1.358       .  S
C1481      C1482   1.409       .  A
C1482      F1485   1.353       .  S
C1483      C1486   1.403       .  A
C1483      C1490   1.405       .  A
C1486      C1487   1.397       .  A
C1486      F1491   1.358       .  S
C1487      C1488   1.413       .  A
C1487      F1493   1.358       .  S
C1488      C1489   1.412       .  A
C1489      C1490   1.400       .  A
C1489      F1492   1.358       .  S
C1490      F1494   1.358       .  S
C1497      C1498   1.405       .  A
C1497      C1502   1.404   1_565  A
C1497      F1515   1.358       .  S
C1498      C1503   1.485       .  S
C1498      C1499   1.403       .  A
C1499      C1500   1.395   1_565  A
C1499      F1504   1.358       .  S
C1500      C1501   1.414       .  A
C1500      F1516   1.358       .  S
C1501      C1502   1.414       .  A
C1502      F1505   1.358       .  S
C1503      C1506   1.405       .  A
C1503      C1510   1.407       .  A
C1506      C1507   1.400       .  A
C1506      F1511   1.358       .  S
C1507      C1508   1.409       .  A
C1507      F1513   1.358   1_455  S
C1508      C1509   1.408       .  A
C1509      C1510   1.401       .  A
C1509      F1512   1.358       .  S
C1510      F1514   1.358       .  S
C1517      C1518   1.404       .  A
C1517      C1522   1.402       .  A
C1517      F1535   1.357       .  S
C1518      C1523   1.485       .  S
C1518      C1519   1.404       .  A
C1519      C1520   1.404       .  A
C1519      F1524   1.358       .  S
C1520      C1521   1.411       .  A
C1520      F1536   1.358       .  S
C1521      C1522   1.409       .  A
C1522      F1525   1.358       .  S
C1523      C1526   1.402       .  A
C1523      C1530   1.404       .  A
C1526      C1527   1.398       .  A
C1526      F1531   1.358       .  S
C1527      C1528   1.412       .  A
C1527      F1533   1.358       .  S
C1528      C1529   1.414       .  A
C1529      C1530   1.408       .  A
C1529      F1532   1.357       .  S
C1530      F1534   1.357       .  S
C1537      C1538   1.406       .  A
C1537      C1542   1.404       .  A
C1537      F1555   1.357       .  S
C1538      C1543   1.484       .  S
C1538      C1539   1.404       .  A
C1539      C1540   1.396       .  A
C1539      F1544   1.359       .  S
C1540      C1541   1.413       .  A
C1540      F1556   1.358       .  S
C1541      C1542   1.411       .  A
C1542      F1545   1.357       .  S
C1543      C1546   1.405       .  A
C1543      C1550   1.408       .  A
C1546      C1547   1.399       .  A
C1546      F1551   1.358       .  S
C1547      C1548   1.408       .  A
C1547      F1553   1.358   1_565  S
C1548      C1549   1.405       .  A
C1549      C1550   1.401       .  A
C1549      F1552   1.358       .  S
C1550      F1554   1.358       .  S
C1557      C1558   1.406       .  A
C1557      C1562   1.407       .  A
C1557      F1575   1.357       .  S
C1558      C1563   1.487       .  S
C1558      C1559   1.404       .  A
C1559      C1560   1.400       .  A
C1559      F1564   1.358       .  S
C1560      C1561   1.410       .  A
C1560      F1576   1.358       .  S
C1561      C1562   1.410       .  A
C1562      F1565   1.357       .  S
C1563      C1566   1.404       .  A
C1563      C1570   1.405       .  A
C1566      C1567   1.406       .  A
C1566      F1571   1.358       .  S
C1567      C1568   1.412       .  A
C1567      F1573   1.358       .  S
C1568      C1569   1.410       .  A
C1569      C1570   1.403       .  A
C1569      F1572   1.358       .  S
C1570      F1574   1.358       .  S
C1577      C1578   1.404       .  A
C1577      C1582   1.395       .  A
C1577      F1595   1.358       .  S
C1578      C1583   1.470       .  S
C1578      C1579   1.402       .  A
C1579      C1580   1.394       .  A
C1579      F1584   1.358       .  S
C1580      C1581   1.407       .  A
C1580      F1596   1.358       .  S
C1581      C1582   1.405       .  A
C1582      F1585   1.358       .  S
C1583      C1586   1.406       .  A
C1583      C1590   1.398       .  A
C1586      C1587   1.399       .  A
C1586      F1591   1.358       .  S
C1587      C1588   1.405       .  A
C1587      F1593   1.357       .  S
C1588      C1589   1.414       .  A
C1589      C1590   1.391       .  A
C1589      F1592   1.359       .  S
C1590      F1594   1.359       .  S
C1597      C1598   1.408       .  A
C1597      C1602   1.405       .  A
C1597      F1615   1.358       .  S
C1598      C1603   1.494       .  S
C1598      C1599   1.405       .  A
C1599      C1600   1.401       .  A
C1599      F1604   1.358       .  S
C1600      C1601   1.415       .  A
C1600      F1616   1.357       .  S
C1601      C1602   1.412       .  A
C1602      F1605   1.357       .  S
C1603      C1606   1.407   1_545  A
C1603      C1610   1.406   1_545  A
C1606      C1607   1.403       .  A
C1606      F1611   1.358       .  S
C1607      C1608   1.412       .  A
C1607      F1613   1.358       .  S
C1608      C1609   1.413       .  A
C1609      C1610   1.402       .  A
C1609      F1612   1.357       .  S
C1610      F1614   1.358   1_565  S
C1617      C1618   1.400       .  A
C1617      C1622   1.392       .  A
C1617      F1635   1.359       .  S
C1618      C1623   1.476       .  S
C1618      C1619   1.409       .  A
C1619      C1620   1.400       .  A
C1619      F1624   1.358       .  S
C1620      C1621   1.404       .  A
C1620      F1636   1.357       .  S
C1621      C1622   1.411       .  A
C1622      F1625   1.359       .  S
C1623      C1626   1.407       .  A
C1623      C1630   1.402       .  A
C1626      C1627   1.397       .  A
C1626      F1631   1.358       .  S
C1627      C1628   1.404       .  A
C1627      F1633   1.358       .  S
C1628      C1629   1.409       .  A
C1629      C1630   1.395       .  A
C1629      F1632   1.358       .  S
C1630      F1634   1.358       .  S
C1637      C1638   1.403       .  A
C1637      C1642   1.400       .  A
C1637      F1655   1.358       .  S
C1638      C1643   1.487       .  S
C1638      C1639   1.405       .  A
C1639      C1640   1.409       .  A
C1639      F1644   1.357       .  S
C1640      C1641   1.412   1_655  A
C1640      F1656   1.357       .  S
C1641      C1642   1.413   1_455  A
C1642      F1645   1.358   1_655  S
C1643      C1646   1.406       .  A
C1643      C1650   1.406       .  A
C1646      C1647   1.403       .  A
C1646      F1651   1.358       .  S
C1647      C1648   1.408       .  A
C1647      F1653   1.359       .  S
C1648      C1649   1.406       .  A
C1649      C1650   1.404       .  A
C1649      F1652   1.358       .  S
C1650      F1654   1.357       .  S
C1657      C1658   1.403       .  A
C1657      C1662   1.396       .  A
C1657      F1675   1.358       .  S
C1658      C1663   1.480       .  S
C1658      C1659   1.407       .  A
C1659      C1660   1.400       .  A
C1659      F1664   1.358       .  S
C1660      C1661   1.406       .  A
C1660      F1676   1.358       .  S
C1661      C1662   1.409       .  A
C1662      F1665   1.358       .  S
C1663      C1666   1.402       .  A
C1663      C1670   1.404       .  A
C1666      C1667   1.394       .  A
C1666      F1671   1.359       .  S
C1667      C1668   1.415       .  A
C1667      F1673   1.358       .  S
C1668      C1669   1.414       .  A
C1669      C1670   1.404       .  A
C1669      F1672   1.357       .  S
C1670      F1674   1.358       .  S
C1677      C1678   1.405       .  A
C1677      C1682   1.405       .  A
C1677      F1695   1.358       .  S
C1678      C1683   1.486       .  S
C1678      C1679   1.404       .  A
C1679      C1680   1.401       .  A
C1679      F1684   1.358       .  S
C1680      C1681   1.409       .  A
C1680      F1696   1.358       .  S
C1681      C1682   1.413       .  A
C1682      F1685   1.358       .  S
C1683      C1686   1.406       .  A
C1683      C1690   1.401       .  A
C1686      C1687   1.410       .  A
C1686      F1691   1.357       .  S
C1687      C1688   1.413       .  A
C1687      F1693   1.357       .  S
C1688      C1689   1.413       .  A
C1689      C1690   1.396       .  A
C1689      F1692   1.358       .  S
C1690      F1694   1.358       .  S
C1697      C1698   1.402       .  A
C1697      C1702   1.393       .  A
C1697      F1715   1.359       .  S
C1698      C1703   1.481       .  S
C1698      C1699   1.405       .  A
C1699      C1700   1.403       .  A
C1699      F1704   1.358       .  S
C1700      C1701   1.413       .  A
C1700      F1716   1.357       .  S
C1701      C1702   1.415       .  A
C1702      F1705   1.358       .  S
C1703      C1706   1.407       .  A
C1703      C1710   1.403       .  A
C1706      C1707   1.399       .  A
C1706      F1711   1.358       .  S
C1707      C1708   1.406       .  A
C1707      F1713   1.358       .  S
C1708      C1709   1.409       .  A
C1709      C1710   1.397       .  A
C1709      F1712   1.357   1_655  S
C1710      F1714   1.358       .  S
C1717      C1718   1.400       .  A
C1717      C1722   1.394       .  A
C1717      F1735   1.358       .  S
C1718      C1723   1.487       .  S
C1718      C1719   1.411       .  A
C1719      C1720   1.407       .  A
C1719      F1724   1.358       .  S
C1720      C1721   1.407       .  A
C1720      F1736   1.357       .  S
C1721      C1722   1.415       .  A
C1722      F1725   1.358       .  S
C1723      C1726   1.410       .  A
C1723      C1730   1.403       .  A
C1726      C1727   1.403       .  A
C1726      F1731   1.358       .  S
C1727      C1728   1.405       .  A
C1727      F1733   1.358       .  S
C1728      C1729   1.411       .  A
C1729      C1730   1.398       .  A
C1729      F1732   1.358       .  S
C1730      F1734   1.358       .  S
C1737      C1738   1.405       .  A
C1737      C1742   1.402       .  A
C1737      F1755   1.358       .  S
C1738      C1743   1.485   1_455  S
C1738      C1739   1.403       .  A
C1739      C1740   1.400       .  A
C1739      F1744   1.358   1_455  S
C1740      C1741   1.412       .  A
C1740      F1756   1.355       .  S
C1741      C1742   1.412       .  A
C1742      F1745   1.358       .  S
C1743      C1746   1.404       .  A
C1743      C1750   1.403       .  A
C1746      C1747   1.402       .  A
C1746      F1751   1.358       .  S
C1747      C1748   1.413       .  A
C1747      F1753   1.358       .  S
C1748      C1749   1.415       .  A
C1749      C1750   1.400       .  A
C1749      F1752   1.358       .  S
C1750      F1754   1.358   1_655  S
C1757      C1758   1.404       .  A
C1757      C1762   1.407   1_545  A
C1757      F1775   1.357       .  S
C1758      C1763   1.482       .  S
C1758      C1759   1.401       .  A
C1759      C1760   1.395   1_545  A
C1759      F1764   1.358       .  S
C1760      C1761   1.415       .  A
C1760      F1776   1.358       .  S
C1761      C1762   1.415       .  A
C1762      F1765   1.358       .  S
C1763      C1766   1.405       .  A
C1763      C1770   1.405       .  A
C1766      C1767   1.400       .  A
C1766      F1771   1.358       .  S
C1767      C1768   1.407       .  A
C1767      F1773   1.358       .  S
C1768      C1769   1.410       .  A
C1769      C1770   1.403       .  A
C1769      F1772   1.358   1_655  S
C1770      F1774   1.358       .  S
C1777      C1778   1.401       .  A
C1777      C1782   1.398       .  A
C1777      F1795   1.358       .  S
C1778      C1783   1.475       .  S
C1778      C1779   1.403       .  A
C1779      C1780   1.401       .  A
C1779      F1784   1.358       .  S
C1780      C1781   1.410       .  A
C1780      F1796   1.358       .  S
C1781      C1782   1.409       .  A
C1782      F1785   1.356       .  S
C1783      C1786   1.402       .  A
C1783      C1790   1.404       .  A
C1786      C1787   1.394       .  A
C1786      F1791   1.358       .  S
C1787      C1788   1.406       .  A
C1787      F1793   1.358       .  S
C1788      C1789   1.409       .  A
C1789      C1790   1.405       .  A
C1789      F1792   1.358       .  S
C1790      F1794   1.357       .  S
C1797      C1798   1.405       .  A
C1797      C1802   1.404       .  A
C1797      F1815   1.358       .  S
C1798      C1803   1.486       .  S
C1798      C1799   1.405       .  A
C1799      C1800   1.397       .  A
C1799      F1804   1.358       .  S
C1800      C1801   1.411   1_545  A
C1800      F1816   1.358       .  S
C1801      C1802   1.413   1_565  A
C1802      F1805   1.358   1_545  S
C1803      C1806   1.403       .  A
C1803      C1810   1.406       .  A
C1806      C1807   1.395       .  A
C1806      F1811   1.358       .  S
C1807      C1808   1.413       .  A
C1807      F1813   1.358       .  S
C1808      C1809   1.414       .  A
C1809      C1810   1.407       .  A
C1809      F1812   1.358       .  S
C1810      F1814   1.358       .  S
C1817      C1818   1.402       .  A
C1817      C1822   1.396       .  A
C1817      F1835   1.358       .  S
C1818      C1823   1.479       .  S
C1818      C1819   1.404       .  A
C1819      C1820   1.405       .  A
C1819      F1824   1.357       .  S
C1820      C1821   1.410       .  A
C1820      F1836   1.357       .  S
C1821      C1822   1.410       .  A
C1822      F1825   1.358       .  S
C1823      C1826   1.401       .  A
C1823      C1830   1.403       .  A
C1826      C1827   1.401       .  A
C1826      F1831   1.358       .  S
C1827      C1828   1.414       .  A
C1827      F1833   1.358       .  S
C1828      C1829   1.412       .  A
C1829      C1830   1.399       .  A
C1829      F1832   1.358       .  S
C1830      F1834   1.358       .  S
C1837      C1838   1.403       .  A
C1837      C1842   1.398       .  A
C1837      F1855   1.358       .  S
C1838      C1843   1.475       .  S
C1838      C1839   1.399       .  A
C1839      C1840   1.398       .  A
C1839      F1844   1.358       .  S
C1840      C1841   1.414       .  A
C1840      F1856   1.354       .  S
C1841      C1842   1.412       .  A
C1842      F1845   1.358       .  S
C1843      C1846   1.401       .  A
C1843      C1850   1.403       .  A
C1846      C1847   1.392   1_655  A
C1846      F1851   1.359       .  S
C1847      C1848   1.411       .  A
C1847      F1853   1.358       .  S
C1848      C1849   1.411       .  A
C1849      C1850   1.404   1_455  A
C1849      F1852   1.358       .  S
C1850      F1854   1.357       .  S
C1857      C1858   1.406       .  A
C1857      C1862   1.408       .  A
C1857      F1875   1.358       .  S
C1858      C1863   1.490       .  S
C1858      C1859   1.403       .  A
C1859      C1860   1.397       .  A
C1859      F1864   1.358       .  S
C1860      C1861   1.415       .  A
C1860      F1876   1.358       .  S
C1861      C1862   1.416       .  A
C1862      F1865   1.358       .  S
C1863      C1866   1.406       .  A
C1863      C1870   1.406       .  A
C1866      C1867   1.405       .  A
C1866      F1871   1.358       .  S
C1867      C1868   1.412       .  A
C1867      F1873   1.358       .  S
C1868      C1869   1.410       .  A
C1869      C1870   1.401       .  A
C1869      F1872   1.358       .  S
C1870      F1874   1.358       .  S
C1877      C1878   1.407       .  A
C1877      C1882   1.397       .  A
C1877      F1895   1.358       .  S
C1878      C1883   1.485       .  S
C1878      C1879   1.407       .  A
C1879      C1880   1.400       .  A
C1879      F1884   1.358       .  S
C1880      C1881   1.409       .  A
C1880      F1896   1.358       .  S
C1881      C1882   1.405       .  A
C1882      F1885   1.358       .  S
C1883      C1886   1.406       .  A
C1883      C1890   1.405       .  A
C1886      C1887   1.395   1_545  A
C1886      F1891   1.358       .  S
C1887      C1888   1.411       .  A
C1887      F1893   1.358       .  S
C1888      C1889   1.412       .  A
C1889      C1890   1.401   1_565  A
C1889      F1892   1.358       .  S
C1890      F1894   1.357       .  S
C1897      C1898   1.402       .  A
C1897      C1902   1.398       .  A
C1897      F1915   1.358       .  S
C1898      C1903   1.478       .  S
C1898      C1899   1.404       .  A
C1899      C1900   1.403       .  A
C1899      F1904   1.357       .  S
C1900      C1901   1.410       .  A
C1900      F1916   1.358       .  S
C1901      C1902   1.410       .  A
C1902      F1905   1.358       .  S
C1903      C1906   1.402       .  A
C1903      C1910   1.404       .  A
C1906      C1907   1.396       .  A
C1906      F1911   1.358       .  S
C1907      C1908   1.410       .  A
C1907      F1913   1.358       .  S
C1908      C1909   1.410       .  A
C1909      C1910   1.406       .  A
C1909      F1912   1.357       .  S
C1910      F1914   1.357       .  S
C1917      C1918   1.412       .  A
C1917      C1922   1.408       .  A
C1917      F1935   1.357       .  S
C1918      C1923   1.493       .  S
C1918      C1919   1.401       .  A
C1919      C1920   1.395       .  A
C1919      F1924   1.359       .  S
C1920      C1921   1.419       .  A
C1920      F1936   1.359       .  S
C1921      C1922   1.407       .  A
C1922      F1925   1.357       .  S
C1923      C1926   1.412       .  A
C1923      C1930   1.406       .  A
C1926      C1927   1.403       .  A
C1926      F1931   1.358       .  S
C1927      C1928   1.404       .  A
C1927      F1933   1.358       .  S
C1928      C1929   1.407       .  A
C1929      C1930   1.401       .  A
C1929      F1932   1.358       .  S
C1930      F1934   1.358       .  S
C1937      C1938   1.407       .  A
C1937      C1942   1.403       .  A
C1937      F1955   1.358       .  S
C1938      C1943   1.493       .  S
C1938      C1939   1.406       .  A
C1939      C1940   1.402       .  A
C1939      F1944   1.358       .  S
C1940      C1941   1.412       .  A
C1940      F1956   1.355       .  S
C1941      C1942   1.413       .  A
C1942      F1945   1.358       .  S
C1943      C1946   1.407       .  A
C1943      C1950   1.406       .  A
C1946      C1947   1.403       .  A
C1946      F1951   1.358       .  S
C1947      C1948   1.412       .  A
C1947      F1953   1.358       .  S
C1948      C1949   1.415       .  A
C1949      C1950   1.401       .  A
C1949      F1952   1.358       .  S
C1950      F1954   1.358       .  S
C1957      C1958   1.411       .  A
C1957      C1962   1.407       .  A
C1957      F1975   1.358       .  S
C1958      C1963   1.498       .  S
C1958      C1959   1.409       .  A
C1959      C1960   1.401       .  A
C1959      F1964   1.358       .  S
C1960      C1961   1.405       .  A
C1960      F1976   1.358   1_455  S
C1961      C1962   1.406       .  A
C1962      F1965   1.358       .  S
C1963      C1966   1.410       .  A
C1963      C1970   1.408       .  A
C1966      C1967   1.408       .  A
C1966      F1971   1.358       .  S
C1967      C1968   1.410       .  A
C1967      F1973   1.358       .  S
C1968      C1969   1.408       .  A
C1969      C1970   1.401       .  A
C1969      F1972   1.358       .  S
C1970      F1974   1.358   1_455  S
C1977      C1978   1.409       .  A
C1977      C1982   1.407       .  A
C1977      F1995   1.358       .  S
C1978      C1983   1.489       .  S
C1978      C1979   1.401   1_655  A
C1979      C1980   1.397       .  A
C1979      F1984   1.358       .  S
C1980      C1981   1.418   1_455  A
C1980      F1996   1.358       .  S
C1981      C1982   1.410       .  A
C1982      F1985   1.357       .  S
C1983      C1986   1.405       .  A
C1983      C1990   1.410   1_655  A
C1986      C1987   1.398       .  A
C1986      F1991   1.358       .  S
C1987      C1988   1.406   1_655  A
C1987      F1993   1.358       .  S
C1988      C1989   1.406       .  A
C1989      C1990   1.405       .  A
C1989      F1992   1.358       .  S
C1990      F1994   1.358       .  S
C1997      C1998   1.401       .  A
C1997      C2002   1.397       .  A
C1997      F2015   1.358       .  S
C1998      C2003   1.475       .  S
C1998      C1999   1.401       .  A
C1999      C2000   1.401       .  A
C1999      F2004   1.358       .  S
C2000      C2001   1.414       .  A
C2000      F2016   1.357       .  S
C2001      C2002   1.410       .  A
C2002      F2005   1.358       .  S
C2003      C2006   1.403       .  A
C2003      C2010   1.402       .  A
C2006      C2007   1.403       .  A
C2006      F2011   1.357       .  S
C2007      C2008   1.409       .  A
C2007      F2013   1.358       .  S
C2008      C2009   1.409       .  A
C2009      C2010   1.395       .  A
C2009      F2012   1.359       .  S
C2010      F2014   1.358       .  S
C2017      C2018   1.406       .  A
C2017      C2022   1.406       .  A
C2017      F2035   1.358       .  S
C2018      C2023   1.486       .  S
C2018      C2019   1.404       .  A
C2019      C2020   1.399       .  A
C2019      F2024   1.358       .  S
C2020      C2021   1.410       .  A
C2020      F2036   1.358       .  S
C2021      C2022   1.411       .  A
C2022      F2025   1.358       .  S
C2023      C2026   1.403       .  A
C2023      C2030   1.405       .  A
C2026      C2027   1.397       .  A
C2026      F2031   1.358       .  S
C2027      C2028   1.414       .  A
C2027      F2033   1.358       .  S
C2028      C2029   1.415       .  A
C2029      C2030   1.408       .  A
C2029      F2032   1.357       .  S
C2030      F2034   1.357       .  S
C2037      C2038   1.406       .  A
C2037      C2042   1.405       .  A
C2037      F2055   1.358       .  S
C2038      C2043   1.495       .  S
C2038      C2039   1.406       .  A
C2039      C2040   1.406       .  A
C2039      F2044   1.358   1_565  S
C2040      C2041   1.415       .  A
C2040      F2056   1.357   1_565  S
C2041      C2042   1.414       .  A
C2042      F2045   1.357       .  S
C2043      C2046   1.408       .  A
C2043      C2050   1.404       .  A
C2046      C2047   1.408       .  A
C2046      F2051   1.357       .  S
C2047      C2048   1.411       .  A
C2047      F2053   1.357       .  S
C2048      C2049   1.413       .  A
C2049      C2050   1.403       .  A
C2049      F2052   1.355       .  S
C2050      F2054   1.358       .  S
C2057      C2058   1.411       .  A
C2057      C2062   1.405       .  A
C2057      F2075   1.358       .  S
C2058      C2063   1.494       .  S
C2058      C2059   1.405   1_565  A
C2059      C2060   1.399       .  A
C2059      F2064   1.358       .  S
C2060      C2061   1.410   1_545  A
C2060      F2076   1.358       .  S
C2061      C2062   1.407       .  A
C2062      F2065   1.358       .  S
C2063      C2066   1.402       .  A
C2063      C2070   1.413   1_565  A
C2066      C2067   1.397       .  A
C2066      F2071   1.358       .  S
C2067      C2068   1.415       .  A
C2067      F2073   1.358       .  S
C2068      C2069   1.406   1_565  A
C2069      C2070   1.408       .  A
C2069      F2072   1.357       .  S
C2070      F2074   1.358       .  S
C2077      C2078   1.403       .  A
C2077      C2082   1.404       .  A
C2077      F2095   1.357       .  S
C2078      C2083   1.482       .  S
C2078      C2079   1.403       .  A
C2079      C2080   1.395       .  A
C2079      F2084   1.359       .  S
C2080      C2081   1.415       .  A
C2080      F2096   1.358       .  S
C2081      C2082   1.414       .  A
C2082      F2085   1.357       .  S
C2083      C2086   1.405       .  A
C2083      C2090   1.405       .  A
C2086      C2087   1.400       .  A
C2086      F2091   1.358       .  S
C2087      C2088   1.408       .  A
C2087      F2093   1.358       .  S
C2088      C2089   1.407       .  A
C2089      C2090   1.398       .  A
C2089      F2092   1.358       .  S
C2090      F2094   1.358       .  S
C2097      C2098   1.410       .  A
C2097      C2102   1.402       .  A
C2097      F2115   1.358       .  S
C2098      C2103   1.493       .  S
C2098      C2099   1.407       .  A
C2099      C2100   1.399       .  A
C2099      F2104   1.358       .  S
C2100      C2101   1.408       .  A
C2100      F2116   1.357       .  S
C2101      C2102   1.407       .  A
C2102      F2105   1.358       .  S
C2103      C2106   1.405       .  A
C2103      C2110   1.409       .  A
C2106      C2107   1.396       .  A
C2106      F2111   1.358       .  S
C2107      C2108   1.415       .  A
C2107      F2113   1.358       .  S
C2108      C2109   1.412       .  A
C2109      C2110   1.405       .  A
C2109      F2112   1.357       .  S
C2110      F2114   1.357       .  S
C2117      C2118   1.401       .  A
C2117      C2122   1.396       .  A
C2117      F2135   1.358       .  S
C2118      C2123   1.482       .  S
C2118      C2119   1.405       .  A
C2119      C2120   1.408       .  A
C2119      F2124   1.357       .  S
C2120      C2121   1.412       .  A
C2120      F2136   1.357       .  S
C2121      C2122   1.412       .  A
C2122      F2125   1.358       .  S
C2123      C2126   1.404       .  A
C2123      C2130   1.405       .  A
C2126      C2127   1.399       .  A
C2126      F2131   1.358       .  S
C2127      C2128   1.408       .  A
C2127      F2133   1.358       .  S
C2128      C2129   1.408       .  A
C2129      C2130   1.403       .  A
C2129      F2132   1.358       .  S
C2130      F2134   1.358       .  S
C2137      C2138   1.404       .  A
C2137      C2142   1.404       .  A
C2137      F2155   1.357       .  S
C2138      C2143   1.480       .  S
C2138      C2139   1.402       .  A
C2139      C2140   1.393       .  A
C2139      F2144   1.359       .  S
C2140      C2141   1.414       .  A
C2140      F2156   1.358       .  S
C2141      C2142   1.414       .  A
C2142      F2145   1.358       .  S
C2143      C2146   1.405       .  A
C2143      C2150   1.403       .  A
C2146      C2147   1.398       .  A
C2146      F2151   1.358       .  S
C2147      C2148   1.408       .  A
C2147      F2153   1.358       .  S
C2148      C2149   1.412       .  A
C2149      C2150   1.401       .  A
C2149      F2152   1.358       .  S
C2150      F2154   1.358       .  S
C2157      C2158   1.405       .  A
C2157      C2162   1.406       .  A
C2157      F2175   1.357       .  S
C2158      C2163   1.485       .  S
C2158      C2159   1.405       .  A
C2159      C2160   1.401       .  A
C2159      F2164   1.358       .  S
C2160      C2161   1.410       .  A
C2160      F2176   1.358       .  S
C2161      C2162   1.410       .  A
C2162      F2165   1.357       .  S
C2163      C2166   1.403       .  A
C2163      C2170   1.406       .  A
C2166      C2167   1.401       .  A
C2166      F2171   1.358       .  S
C2167      C2168   1.410       .  A
C2167      F2173   1.358       .  S
C2168      C2169   1.410       .  A
C2169      C2170   1.405       .  A
C2169      F2172   1.358       .  S
C2170      F2174   1.358       .  S
C2177      C2178   1.405       .  A
C2177      C2182   1.407       .  A
C2177      F2195   1.357       .  S
C2178      C2183   1.482       .  S
C2178      C2179   1.401       .  A
C2179      C2180   1.392       .  A
C2179      F2184   1.359       .  S
C2180      C2181   1.413       .  A
C2180      F2196   1.358       .  S
C2181      C2182   1.413       .  A
C2182      F2185   1.358       .  S
C2183      C2186   1.404       .  A
C2183      C2190   1.404       .  A
C2186      C2187   1.398       .  A
C2186      F2191   1.358       .  S
C2187      C2188   1.410       .  A
C2187      F2193   1.358       .  S
C2188      C2189   1.413       .  A
C2189      C2190   1.403       .  A
C2189      F2192   1.358       .  S
C2190      F2194   1.358       .  S
C2197      C2198   1.407       .  A
C2197      C2202   1.402       .  A
C2197      F2215   1.358       .  S
C2198      C2203   1.490       .  S
C2198      C2199   1.406       .  A
C2199      C2200   1.398       .  A
C2199      F2204   1.358       .  S
C2200      C2201   1.412       .  A
C2200      F2216   1.358       .  S
C2201      C2202   1.412       .  A
C2202      F2205   1.358       .  S
C2203      C2206   1.406       .  A
C2203      C2210   1.408       .  A
C2206      C2207   1.397       .  A
C2206      F2211   1.358       .  S
C2207      C2208   1.408       .  A
C2207      F2213   1.354       .  S
C2208      C2209   1.412       .  A
C2209      C2210   1.402       .  A
C2209      F2212   1.358       .  S
C2210      F2214   1.358       .  S
C2217      C2218   1.406       .  A
C2217      C2222   1.409       .  A
C2217      F2235   1.357       .  S
C2218      C2223   1.485       .  S
C2218      C2219   1.403       .  A
C2219      C2220   1.397       .  A
C2219      F2224   1.358       .  S
C2220      C2221   1.410       .  A
C2220      F2236   1.358       .  S
C2221      C2222   1.412       .  A
C2222      F2225   1.357       .  S
C2223      C2226   1.404       .  A
C2223      C2230   1.404       .  A
C2226      C2227   1.405       .  A
C2226      F2231   1.358       .  S
C2227      C2228   1.414       .  A
C2227      F2233   1.358       .  S
C2228      C2229   1.409       .  A
C2229      C2230   1.400       .  A
C2229      F2232   1.358       .  S
C2230      F2234   1.358       .  S
C2237      C2238   1.407       .  A
C2237      C2242   1.397       .  A
C2237      F2255   1.358       .  S
C2238      C2243   1.482       .  S
C2238      C2239   1.406       .  A
C2239      C2240   1.400       .  A
C2239      F2244   1.358       .  S
C2240      C2241   1.407       .  A
C2240      F2256   1.358       .  S
C2241      C2242   1.404       .  A
C2242      F2245   1.358       .  S
C2243      C2246   1.403       .  A
C2243      C2250   1.405       .  A
C2246      C2247   1.392       .  A
C2246      F2251   1.359       .  S
C2247      C2248   1.413       .  A
C2247      F2253   1.358       .  S
C2248      C2249   1.413       .  A
C2249      C2250   1.404       .  A
C2249      F2252   1.358       .  S
C2250      F2254   1.357       .  S
C2257      C2258   1.402       .  A
C2257      C2262   1.397       .  A
C2257      F2275   1.358       .  S
C2258      C2263   1.480       .  S
C2258      C2259   1.404       .  A
C2259      C2260   1.403       .  A
C2259      F2264   1.358       .  S
C2260      C2261   1.412       .  A
C2260      F2276   1.358       .  S
C2261      C2262   1.410       .  A
C2262      F2265   1.358       .  S
C2263      C2266   1.402       .  A
C2263      C2270   1.404       .  A
C2266      C2267   1.395       .  A
C2266      F2271   1.358       .  S
C2267      C2268   1.411       .  A
C2267      F2273   1.358       .  S
C2268      C2269   1.413       .  A
C2269      C2270   1.406       .  A
C2269      F2272   1.358       .  S
C2270      F2274   1.357       .  S
C2277      C2278   1.401       .  A
C2277      C2282   1.401       .  A
C2277      F2295   1.358       .  S
C2278      C2283   1.475       .  S
C2278      C2279   1.402       .  A
C2279      C2280   1.395       .  A
C2279      F2284   1.358       .  S
C2280      C2281   1.410       .  A
C2280      F2296   1.358       .  S
C2281      C2282   1.413       .  A
C2282      F2285   1.355       .  S
C2283      C2286   1.403       .  A
C2283      C2290   1.403       .  A
C2286      C2287   1.402       .  A
C2286      F2291   1.357       .  S
C2287      C2288   1.409       .  A
C2287      F2293   1.357       .  S
C2288      C2289   1.408       .  A
C2289      C2290   1.393       .  A
C2289      F2292   1.359       .  S
C2290      F2294   1.358       .  S
C2297      C2298   1.405       .  A
C2297      C2302   1.400       .  A
C2297      F2315   1.358       .  S
C2298      C2303   1.493       .  S
C2298      C2299   1.412       .  A
C2299      C2300   1.404       .  A
C2299      F2304   1.358       .  S
C2300      C2301   1.405       .  A
C2300      F2316   1.358       .  S
C2301      C2302   1.410       .  A
C2302      F2305   1.358       .  S
C2303      C2306   1.412       .  A
C2303      C2310   1.401       .  A
C2306      C2307   1.409       .  A
C2306      F2311   1.358       .  S
C2307      C2308   1.409       .  A
C2307      F2313   1.358       .  S
C2308      C2309   1.415       .  A
C2309      C2310   1.394       .  A
C2309      F2312   1.358       .  S
C2310      F2314   1.358       .  S
C2317      C2318   1.406       .  A
C2317      C2322   1.403       .  A
C2317      F2335   1.358       .  S
C2318      C2323   1.490       .  S
C2318      C2319   1.404       .  A
C2319      C2320   1.400       .  A
C2319      F2324   1.358       .  S
C2320      C2321   1.414       .  A
C2320      F2336   1.358       .  S
C2321      C2322   1.414       .  A
C2322      F2325   1.358       .  S
C2323      C2326   1.405       .  A
C2323      C2330   1.407       .  A
C2326      C2327   1.401       .  A
C2326      F2331   1.358       .  S
C2327      C2328   1.412       .  A
C2327      F2333   1.357       .  S
C2328      C2329   1.412       .  A
C2329      C2330   1.403       .  A
C2329      F2332   1.358   1_455  S
C2330      F2334   1.358   1_455  S
C2337      C2338   1.405       .  A
C2337      C2342   1.398       .  A
C2337      F2355   1.358       .  S
C2338      C2343   1.487       .  S
C2338      C2339   1.409       .  A
C2339      C2340   1.401       .  A
C2339      F2344   1.358       .  S
C2340      C2341   1.406       .  A
C2340      F2356   1.358       .  S
C2341      C2342   1.409       .  A
C2342      F2345   1.358       .  S
C2343      C2346   1.411       .  A
C2343      C2350   1.401       .  A
C2346      C2347   1.404       .  A
C2346      F2351   1.357       .  S
C2347      C2348   1.406       .  A
C2347      F2353   1.357       .  S
C2348      C2349   1.415       .  A
C2349      C2350   1.394       .  A
C2349      F2352   1.359       .  S
C2350      F2354   1.358       .  S
C2357      C2358   1.406       .  A
C2357      C2362   1.403       .  A
C2357      F2375   1.357       .  S
C2358      C2363   1.485       .  S
C2358      C2359   1.407       .  A
C2359      C2360   1.398       .  A
C2359      F2364   1.358       .  S
C2360      C2361   1.405       .  A
C2360      F2376   1.358       .  S
C2361      C2362   1.406       .  A
C2362      F2365   1.358       .  S
C2363      C2366   1.405       .  A
C2363      C2370   1.405       .  A
C2366      C2367   1.400       .  A
C2366      F2371   1.358       .  S
C2367      C2368   1.410       .  A
C2367      F2373   1.358       .  S
C2368      C2369   1.410       .  A
C2369      C2370   1.401       .  A
C2369      F2372   1.358       .  S
C2370      F2374   1.358       .  S
C2377      C2378   1.407   1_455  A
C2377      C2382   1.399       .  A
C2377      F2395   1.358   1_455  S
C2378      C2383   1.484       .  S
C2378      C2379   1.408       .  A
C2379      C2380   1.402   1_655  A
C2379      F2384   1.358       .  S
C2380      C2381   1.404       .  A
C2380      F2396   1.358       .  S
C2381      C2382   1.404       .  A
C2382      F2385   1.358       .  S
C2383      C2386   1.405       .  A
C2383      C2390   1.403       .  A
C2386      C2387   1.403       .  A
C2386      F2391   1.358       .  S
C2387      C2388   1.413       .  A
C2387      F2393   1.357       .  S
C2388      C2389   1.412       .  A
C2389      C2390   1.398       .  A
C2389      F2392   1.358       .  S
C2390      F2394   1.358       .  S
C2397      C2398   1.406       .  A
C2397      C2402   1.402   1_565  A
C2397      F2415   1.358   1_565  S
C2398      C2403   1.486       .  S
C2398      C2399   1.404       .  A
C2399      C2400   1.396       .  A
C2399      F2404   1.358       .  S
C2400      C2401   1.413       .  A
C2400      F2416   1.356       .  S
C2401      C2402   1.413   1_565  A
C2402      F2405   1.357       .  S
C2403      C2406   1.406       .  A
C2403      C2410   1.405       .  A
C2406      C2407   1.401       .  A
C2406      F2411   1.358       .  S
C2407      C2408   1.413       .  A
C2407      F2413   1.358       .  S
C2408      C2409   1.410       .  A
C2409      C2410   1.395       .  A
C2409      F2412   1.356       .  S
C2410      F2414   1.358       .  S
C2417      C2418   1.408       .  A
C2417      C2422   1.410       .  A
C2417      F2435   1.358       .  S
C2418      C2423   1.490       .  S
C2418      C2419   1.403       .  A
C2419      C2420   1.394       .  A
C2419      F2424   1.359       .  S
C2420      C2421   1.415       .  A
C2420      F2436   1.358       .  S
C2421      C2422   1.415       .  A
C2422      F2425   1.357       .  S
C2423      C2426   1.405       .  A
C2423      C2430   1.408       .  A
C2426      C2427   1.403       .  A
C2426      F2431   1.358       .  S
C2427      C2428   1.411       .  A
C2427      F2433   1.356       .  S
C2428      C2429   1.407       .  A
C2429      C2430   1.400       .  A
C2429      F2432   1.358       .  S
C2430      F2434   1.358       .  S
C2437      C2438   1.409       .  A
C2437      C2442   1.398       .  A
C2437      F2455   1.358       .  S
C2438      C2443   1.502       .  S
C2438      C2439   1.411       .  A
C2439      C2440   1.408       .  A
C2439      F2444   1.357       .  S
C2440      C2441   1.412       .  A
C2440      F2456   1.358       .  S
C2441      C2442   1.412       .  A
C2442      F2445   1.358       .  S
C2443      C2446   1.411       .  A
C2443      C2450   1.411       .  A
C2446      C2447   1.402       .  A
C2446      F2451   1.358       .  S
C2447      C2448   1.406   1_655  A
C2447      F2453   1.358       .  S
C2448      C2449   1.408       .  A
C2449      C2450   1.405   1_455  A
C2449      F2452   1.358       .  S
C2450      F2454   1.357       .  S
C2457      C2458   1.409       .  A
C2457      C2462   1.402       .  A
C2457      F2475   1.358       .  S
C2458      C2463   1.478       .  S
C2458      C2459   1.400       .  A
C2459      C2460   1.392       .  A
C2459      F2464   1.358       .  S
C2460      C2461   1.411       .  A
C2460      F2476   1.359       .  S
C2461      C2462   1.406       .  A
C2462      F2465   1.358       .  S
C2463      C2466   1.401       .  A
C2463      C2470   1.410       .  A
C2466      C2467   1.394       .  A
C2466      F2471   1.358       .  S
C2467      C2468   1.411       .  A
C2467      F2473   1.359       .  S
C2468      C2469   1.402       .  A
C2469      C2470   1.399       .  A
C2469      F2472   1.358       .  S
C2470      F2474   1.358       .  S
C2477      C2478   1.400       .  A
C2477      C2482   1.391       .  A
C2477      F2495   1.359       .  S
C2478      C2483   1.475       .  S
C2478      C2479   1.404       .  A
C2479      C2480   1.406       .  A
C2479      F2484   1.357       .  S
C2480      C2481   1.411       .  A
C2480      F2496   1.358       .  S
C2481      C2482   1.409       .  A
C2482      F2485   1.358       .  S
C2483      C2486   1.401       .  A
C2483      C2490   1.403       .  A
C2486      C2487   1.399       .  A
C2486      F2491   1.358       .  S
C2487      C2488   1.411   1_545  A
C2487      F2493   1.356   1_545  S
C2488      C2489   1.410   1_565  A
C2489      C2490   1.398       .  A
C2489      F2492   1.358       .  S
C2490      F2494   1.358       .  S
C2497      C2498   1.402       .  A
C2497      C2502   1.398       .  A
C2497      F2515   1.358       .  S
C2498      C2503   1.481       .  S
C2498      C2499   1.405       .  A
C2499      C2500   1.404       .  A
C2499      F2504   1.357       .  S
C2500      C2501   1.409       .  A
C2500      F2516   1.358       .  S
C2501      C2502   1.411       .  A
C2502      F2505   1.359       .  S
C2503      C2506   1.403       .  A
C2503      C2510   1.403       .  A
C2506      C2507   1.405       .  A
C2506      F2511   1.357       .  S
C2507      C2508   1.413       .  A
C2507      F2513   1.357       .  S
C2508      C2509   1.412       .  A
C2509      C2510   1.398       .  A
C2509      F2512   1.358       .  S
C2510      F2514   1.359       .  S
C2517      C2518   1.402       .  A
C2517      C2522   1.401       .  A
C2517      F2535   1.358       .  S
C2518      C2523   1.477       .  S
C2518      C2519   1.403       .  A
C2519      C2520   1.398       .  A
C2519      F2524   1.358       .  S
C2520      C2521   1.410       .  A
C2520      F2536   1.358       .  S
C2521      C2522   1.411       .  A
C2522      F2525   1.358       .  S
C2523      C2526   1.402       .  A
C2523      C2530   1.403       .  A
C2526      C2527   1.394       .  A
C2526      F2531   1.358       .  S
C2527      C2528   1.409       .  A
C2527      F2533   1.358       .  S
C2528      C2529   1.412       .  A
C2529      C2530   1.405       .  A
C2529      F2532   1.358       .  S
C2530      F2534   1.357       .  S
C2537      C2538   1.406   1_565  A
C2537      C2542   1.404       .  A
C2537      F2555   1.358   1_565  S
C2538      C2543   1.481       .  S
C2538      C2539   1.403   1_545  A
C2539      C2540   1.390       .  A
C2539      F2544   1.358   1_565  S
C2540      C2541   1.411       .  A
C2540      F2556   1.358       .  S
C2541      C2542   1.413       .  A
C2542      F2545   1.358       .  S
C2543      C2546   1.406       .  A
C2543      C2550   1.405       .  A
C2546      C2547   1.397       .  A
C2546      F2551   1.358       .  S
C2547      C2548   1.406       .  A
C2547      F2553   1.358       .  S
C2548      C2549   1.409       .  A
C2549      C2550   1.400       .  A
C2549      F2552   1.357   1_655  S
C2550      F2554   1.358       .  S
C2557      C2558   1.404       .  A
C2557      C2562   1.399       .  A
C2557      F2575   1.358       .  S
C2558      C2563   1.481       .  S
C2558      C2559   1.403       .  A
C2559      C2560   1.398       .  A
C2559      F2564   1.358       .  S
C2560      C2561   1.413       .  A
C2560      F2576   1.358       .  S
C2561      C2562   1.411       .  A
C2562      F2565   1.358       .  S
C2563      C2566   1.403       .  A
C2563      C2570   1.404       .  A
C2566      C2567   1.399       .  A
C2566      F2571   1.358       .  S
C2567      C2568   1.411       .  A
C2567      F2573   1.357       .  S
C2568      C2569   1.412       .  A
C2569      C2570   1.399       .  A
C2569      F2572   1.357       .  S
C2570      F2574   1.358       .  S
C2577      C2578   1.398       .  A
C2577      C2582   1.390       .  A
C2577      F2595   1.358       .  S
C2578      C2583   1.477       .  S
C2578      C2579   1.409       .  A
C2579      C2580   1.403       .  A
C2579      F2584   1.358       .  S
C2580      C2581   1.408       .  A
C2580      F2596   1.358       .  S
C2581      C2582   1.414       .  A
C2582      F2585   1.358       .  S
C2583      C2586   1.408       .  A
C2583      C2590   1.403       .  A
C2586      C2587   1.399       .  A
C2586      F2591   1.358       .  S
C2587      C2588   1.404       .  A
C2587      F2593   1.358       .  S
C2588      C2589   1.405       .  A
C2589      C2590   1.393       .  A
C2589      F2592   1.358       .  S
C2590      F2594   1.358       .  S
C2597      C2598   1.403       .  A
C2597      C2602   1.402   1_655  A
C2597      F2615   1.357       .  S
C2598      C2603   1.478       .  S
C2598      C2599   1.404       .  A
C2599      C2600   1.395   1_655  A
C2599      F2604   1.359       .  S
C2600      C2601   1.409       .  A
C2600      F2616   1.359       .  S
C2601      C2602   1.409       .  A
C2602      F2605   1.357       .  S
C2603      C2606   1.406       .  A
C2603      C2610   1.402       .  A
C2606      C2607   1.403       .  A
C2606      F2611   1.358       .  S
C2607      C2608   1.408   1_545  A
C2607      F2613   1.358   1_545  S
C2608      C2609   1.410   1_565  A
C2609      C2610   1.395       .  A
C2609      F2612   1.358       .  S
C2610      F2614   1.358       .  S
C2617      C2618   1.401       .  A
C2617      C2622   1.395       .  A
C2617      F2635   1.358       .  S
C2618      C2623   1.474       .  S
C2618      C2619   1.404       .  A
C2619      C2620   1.402       .  A
C2619      F2624   1.357       .  S
C2620      C2621   1.406       .  A
C2620      F2636   1.357       .  S
C2621      C2622   1.409       .  A
C2622      F2625   1.358       .  S
C2623      C2626   1.401       .  A
C2623      C2630   1.401       .  A
C2626      C2627   1.401       .  A
C2626      F2631   1.357       .  S
C2627      C2628   1.412       .  A
C2627      F2633   1.358       .  S
C2628      C2629   1.412       .  A
C2629      C2630   1.396       .  A
C2629      F2632   1.358       .  S
C2630      F2634   1.358       .  S
C2637      C2638   1.404       .  A
C2637      C2642   1.402       .  A
C2637      F2655   1.358       .  S
C2638      C2643   1.487       .  S
C2638      C2639   1.406       .  A
C2639      C2640   1.407       .  A
C2639      F2644   1.358       .  S
C2640      C2641   1.412       .  A
C2640      F2656   1.358       .  S
C2641      C2642   1.409       .  A
C2642      F2645   1.358       .  S
C2643      C2646   1.404       .  A
C2643      C2650   1.406       .  A
C2646      C2647   1.401   1_545  A
C2646      F2651   1.358       .  S
C2647      C2648   1.410       .  A
C2647      F2653   1.358       .  S
C2648      C2649   1.411   1_565  A
C2649      C2650   1.407       .  A
C2649      F2652   1.358   1_545  S
C2650      F2654   1.357       .  S
C2657      C2658   1.404       .  A
C2657      C2662   1.404       .  A
C2657      F2675   1.357       .  S
C2658      C2663   1.483       .  S
C2658      C2659   1.403       .  A
C2659      C2660   1.396       .  A
C2659      F2664   1.358       .  S
C2660      C2661   1.415       .  A
C2660      F2676   1.358       .  S
C2661      C2662   1.413       .  A
C2662      F2665   1.357       .  S
C2663      C2666   1.405       .  A
C2663      C2670   1.406       .  A
C2666      C2667   1.401       .  A
C2666      F2671   1.358       .  S
C2667      C2668   1.409       .  A
C2667      F2673   1.358       .  S
C2668      C2669   1.408       .  A
C2669      C2670   1.401       .  A
C2669      F2672   1.358       .  S
C2670      F2674   1.358       .  S
C2677      C2678   1.404   1_545  A
C2677      C2682   1.401       .  A
C2677      F2695   1.358       .  S
C2678      C2683   1.480       .  S
C2678      C2679   1.403       .  A
C2679      C2680   1.396   1_565  A
C2679      F2684   1.358       .  S
C2680      C2681   1.411       .  A
C2680      F2696   1.356       .  S
C2681      C2682   1.410       .  A
C2682      F2685   1.358       .  S
C2683      C2686   1.401       .  A
C2683      C2690   1.404       .  A
C2686      C2687   1.396       .  A
C2686      F2691   1.358       .  S
C2687      C2688   1.414       .  A
C2687      F2693   1.357       .  S
C2688      C2689   1.412       .  A
C2689      C2690   1.401       .  A
C2689      F2692   1.357       .  S
C2690      F2694   1.358       .  S
C2697      C2698   1.401       .  A
C2697      C2702   1.397       .  A
C2697      F2715   1.358       .  S
C2698      C2703   1.482       .  S
C2698      C2699   1.408       .  A
C2699      C2700   1.403       .  A
C2699      F2704   1.358       .  S
C2700      C2701   1.406       .  A
C2700      F2716   1.357       .  S
C2701      C2702   1.413       .  A
C2702      F2705   1.358       .  S
C2703      C2706   1.410       .  A
C2703      C2710   1.399       .  A
C2706      C2707   1.406       .  A
C2706      F2711   1.358       .  S
C2707      C2708   1.407       .  A
C2707      F2713   1.358       .  S
C2708      C2709   1.413       .  A
C2709      C2710   1.392       .  A
C2709      F2712   1.358       .  S
C2710      F2714   1.358       .  S
C2717      C2718   1.408       .  A
C2717      C2722   1.403       .  A
C2717      F2735   1.358       .  S
C2718      C2723   1.496       .  S
C2718      C2719   1.407       .  A
C2719      C2720   1.401       .  A
C2719      F2724   1.358       .  S
C2720      C2721   1.414       .  A
C2720      F2736   1.358       .  S
C2721      C2722   1.412       .  A
C2722      F2725   1.358       .  S
C2723      C2726   1.408       .  A
C2723      C2730   1.407       .  A
C2726      C2727   1.404       .  A
C2726      F2731   1.358       .  S
C2727      C2728   1.412       .  A
C2727      F2733   1.357       .  S
C2728      C2729   1.414       .  A
C2729      C2730   1.402       .  A
C2729      F2732   1.356       .  S
C2730      F2734   1.358       .  S
C2737      C2738   1.406       .  A
C2737      C2742   1.409       .  A
C2737      F2755   1.357       .  S
C2738      C2743   1.487       .  S
C2738      C2739   1.402       .  A
C2739      C2740   1.395       .  A
C2739      F2744   1.359       .  S
C2740      C2741   1.416       .  A
C2740      F2756   1.358       .  S
C2741      C2742   1.415       .  A
C2742      F2745   1.357       .  S
C2743      C2746   1.406       .  A
C2743      C2750   1.405       .  A
C2746      C2747   1.401       .  A
C2746      F2751   1.358       .  S
C2747      C2748   1.408       .  A
C2747      F2753   1.358       .  S
C2748      C2749   1.413       .  A
C2749      C2750   1.406       .  A
C2749      F2752   1.358       .  S
C2750      F2754   1.358       .  S
C2757      C2758   1.401       .  A
C2757      C2762   1.394   1_455  A
C2757      F2775   1.358       .  S
C2758      C2763   1.479       .  S
C2758      C2759   1.404       .  A
C2759      C2760   1.405   1_455  A
C2759      F2764   1.358       .  S
C2760      C2761   1.414       .  A
C2760      F2776   1.358       .  S
C2761      C2762   1.414       .  A
C2762      F2765   1.358       .  S
C2763      C2766   1.403       .  A
C2763      C2770   1.407       .  A
C2766      C2767   1.397       .  A
C2766      F2771   1.358       .  S
C2767      C2768   1.408       .  A
C2767      F2773   1.358       .  S
C2768      C2769   1.406       .  A
C2769      C2770   1.402       .  A
C2769      F2772   1.358       .  S
C2770      F2774   1.358       .  S
C2777      C2778   1.405       .  A
C2777      C2782   1.396       .  A
C2777      F2795   1.358       .  S
C2778      C2783   1.471       .  S
C2778      C2779   1.400       .  A
C2779      C2780   1.393       .  A
C2779      F2784   1.359       .  S
C2780      C2781   1.410       .  A
C2780      F2796   1.355       .  S
C2781      C2782   1.406       .  A
C2782      F2785   1.357       .  S
C2783      C2786   1.401       .  A
C2783      C2790   1.402       .  A
C2786      C2787   1.394       .  A
C2786      F2791   1.358       .  S
C2787      C2788   1.412       .  A
C2787      F2793   1.358       .  S
C2788      C2789   1.411       .  A
C2789      C2790   1.395       .  A
C2789      F2792   1.358       .  S
C2790      F2794   1.358       .  S
C2797      C2798   1.405       .  A
C2797      C2802   1.397       .  A
C2797      F2815   1.358       .  S
C2798      C2803   1.484       .  S
C2798      C2799   1.405       .  A
C2799      C2800   1.404   1_455  A
C2799      F2804   1.357       .  S
C2800      C2801   1.410       .  A
C2800      F2816   1.358       .  S
C2801      C2802   1.410   1_655  A
C2802      F2805   1.358       .  S
C2803      C2806   1.403       .  A
C2803      C2810   1.406       .  A
C2806      C2807   1.395   1_565  A
C2806      F2811   1.358       .  S
C2807      C2808   1.411       .  A
C2807      F2813   1.358       .  S
C2808      C2809   1.412   1_545  A
C2809      C2810   1.407       .  A
C2809      F2812   1.357       .  S
C2810      F2814   1.358       .  S
C2817      C2818   1.403       .  A
C2817      C2822   1.393       .  A
C2817      F2835   1.358       .  S
C2818      C2823   1.488       .  S
C2818      C2819   1.408       .  A
C2819      C2820   1.407       .  A
C2819      F2824   1.358       .  S
C2820      C2821   1.414       .  A
C2820      F2836   1.357       .  S
C2821      C2822   1.415       .  A
C2822      F2825   1.358       .  S
C2823      C2826   1.407       .  A
C2823      C2830   1.408       .  A
C2826      C2827   1.400       .  A
C2826      F2831   1.357       .  S
C2827      C2828   1.409       .  A
C2827      F2833   1.358       .  S
C2828      C2829   1.408       .  A
C2829      C2830   1.400       .  A
C2829      F2832   1.358       .  S
C2830      F2834   1.358       .  S
C2837      C2838   1.405       .  A
C2837      C2842   1.397       .  A
C2837      F2855   1.358       .  S
C2838      C2843   1.486       .  S
C2838      C2839   1.409       .  A
C2839      C2840   1.405       .  A
C2839      F2844   1.358       .  S
C2840      C2841   1.405       .  A
C2840      F2856   1.357       .  S
C2841      C2842   1.405       .  A
C2842      F2845   1.358       .  S
C2843      C2846   1.404       .  A
C2843      C2850   1.410       .  A
C2846      C2847   1.396       .  A
C2846      F2851   1.358       .  S
C2847      C2848   1.410       .  A
C2847      F2853   1.359       .  S
C2848      C2849   1.405       .  A
C2849      C2850   1.404       .  A
C2849      F2852   1.358       .  S
C2850      F2854   1.357       .  S
C2857      C2858   1.408       .  A
C2857      C2862   1.402       .  A
C2857      F2875   1.357       .  S
C2858      C2863   1.497       .  S
C2858      C2859   1.408       .  A
C2859      C2860   1.403       .  A
C2859      F2864   1.358       .  S
C2860      C2861   1.414       .  A
C2860      F2876   1.358       .  S
C2861      C2862   1.411       .  A
C2862      F2865   1.357       .  S
C2863      C2866   1.408       .  A
C2863      C2870   1.408       .  A
C2866      C2867   1.403       .  A
C2866      F2871   1.358   1_655  S
C2867      C2868   1.414       .  A
C2867      F2873   1.358   1_655  S
C2868      C2869   1.412       .  A
C2869      C2870   1.402       .  A
C2869      F2872   1.357       .  S
C2870      F2874   1.358       .  S
C2877      C2878   1.404       .  A
C2877      C2882   1.397       .  A
C2877      F2895   1.358       .  S
C2878      C2883   1.482       .  S
C2878      C2879   1.407       .  A
C2879      C2880   1.401       .  A
C2879      F2884   1.358       .  S
C2880      C2881   1.407       .  A
C2880      F2896   1.358       .  S
C2881      C2882   1.408       .  A
C2882      F2885   1.358       .  S
C2883      C2886   1.403       .  A
C2883      C2890   1.405       .  A
C2886      C2887   1.395   1_565  A
C2886      F2891   1.358       .  S
C2887      C2888   1.412       .  A
C2887      F2893   1.358       .  S
C2888      C2889   1.412       .  A
C2889      C2890   1.401   1_545  A
C2889      F2892   1.358       .  S
C2890      F2894   1.358       .  S
C2897      C2898   1.403       .  A
C2897      C2902   1.401       .  A
C2897      F2915   1.358       .  S
C2898      C2903   1.476       .  S
C2898      C2899   1.403       .  A
C2899      C2900   1.399       .  A
C2899      F2904   1.357       .  S
C2900      C2901   1.407       .  A
C2900      F2916   1.358       .  S
C2901      C2902   1.409       .  A
C2902      F2905   1.358       .  S
C2903      C2906   1.400       .  A
C2903      C2910   1.403       .  A
C2906      C2907   1.395       .  A
C2906      F2911   1.359       .  S
C2907      C2908   1.414       .  A
C2907      F2913   1.358       .  S
C2908      C2909   1.412       .  A
C2909      C2910   1.404       .  A
C2909      F2912   1.357       .  S
C2910      F2914   1.357       .  S
C2917      C2918   1.409       .  A
C2917      C2922   1.406       .  A
C2917      F2935   1.357       .  S
C2918      C2923   1.489       .  S
C2918      C2919   1.404       .  A
C2919      C2920   1.394       .  A
C2919      F2924   1.358       .  S
C2920      C2921   1.412       .  A
C2920      F2936   1.358       .  S
C2921      C2922   1.411       .  A
C2922      F2925   1.358       .  S
C2923      C2926   1.409       .  A
C2923      C2930   1.406       .  A
C2926      C2927   1.400       .  A
C2926      F2931   1.358       .  S
C2927      C2928   1.406       .  A
C2927      F2933   1.358       .  S
C2928      C2929   1.409       .  A
C2929      C2930   1.401       .  A
C2929      F2932   1.357   1_455  S
C2930      F2934   1.358       .  S
C2937      C2938   1.402       .  A
C2937      C2942   1.395       .  A
C2937      F2955   1.359       .  S
C2938      C2943   1.477       .  S
C2938      C2939   1.402       .  A
C2939      C2940   1.403       .  A
C2939      F2944   1.357       .  S
C2940      C2941   1.413       .  A
C2940      F2956   1.357       .  S
C2941      C2942   1.413       .  A
C2942      F2945   1.358       .  S
C2943      C2946   1.403       .  A
C2943      C2950   1.403       .  A
C2946      C2947   1.402       .  A
C2946      F2951   1.358       .  S
C2947      C2948   1.410       .  A
C2947      F2953   1.358       .  S
C2948      C2949   1.408       .  A
C2949      C2950   1.397       .  A
C2949      F2952   1.358       .  S
C2950      F2954   1.358       .  S
C2957      C2958   1.405       .  A
C2957      C2962   1.402       .  A
C2957      F2975   1.358       .  S
C2958      C2963   1.479   1_655  S
C2958      C2959   1.401       .  A
C2959      C2960   1.395       .  A
C2959      F2964   1.358   1_655  S
C2960      C2961   1.413       .  A
C2960      F2976   1.356       .  S
C2961      C2962   1.412       .  A
C2962      F2965   1.358       .  S
C2963      C2966   1.403       .  A
C2963      C2970   1.403       .  A
C2966      C2967   1.397       .  A
C2966      F2971   1.358   1_455  S
C2967      C2968   1.412       .  A
C2967      F2973   1.356       .  S
C2968      C2969   1.413       .  A
C2969      C2970   1.399       .  A
C2969      F2972   1.358       .  S
C2970      F2974   1.358       .  S
C2977      C2978   1.402       .  A
C2977      C2982   1.394       .  A
C2977      F2995   1.358       .  S
C2978      C2983   1.473       .  S
C2978      C2979   1.405       .  A
C2979      C2980   1.403       .  A
C2979      F2984   1.358       .  S
C2980      C2981   1.407       .  A
C2980      F2996   1.358       .  S
C2981      C2982   1.406       .  A
C2982      F2985   1.358       .  S
C2983      C2986   1.404       .  A
C2983      C2990   1.399       .  A
C2986      C2987   1.406       .  A
C2986      F2991   1.357       .  S
C2987      C2988   1.411       .  A
C2987      F2993   1.358       .  S
C2988      C2989   1.410       .  A
C2989      C2990   1.389       .  A
C2989      F2992   1.358       .  S
C2990      F2994   1.359       .  S
C2997      C2998   1.406       .  A
C2997      C3002   1.406       .  A
C2997      F3015   1.357       .  S
C2998      C3003   1.486       .  S
C2998      C2999   1.403       .  A
C2999      C3000   1.394       .  A
C2999      F3004   1.358       .  S
C3000      C3001   1.413   1_455  A
C3000      F3016   1.358   1_455  S
C3001      C3002   1.413   1_655  A
C3002      F3005   1.358   1_455  S
C3003      C3006   1.406       .  A
C3003      C3010   1.407       .  A
C3006      C3007   1.402       .  A
C3006      F3011   1.358       .  S
C3007      C3008   1.408       .  A
C3007      F3013   1.358       .  S
C3008      C3009   1.408       .  A
C3009      C3010   1.400       .  A
C3009      F3012   1.358       .  S
C3010      F3014   1.358       .  S
C3017      C3018   1.403       .  A
C3017      C3022   1.399       .  A
C3017      F3035   1.358       .  S
C3018      C3023   1.468       .  S
C3018      C3019   1.403       .  A
C3019      C3020   1.390       .  A
C3019      F3024   1.359       .  S
C3020      C3021   1.405       .  A
C3020      F3036   1.359       .  S
C3021      C3022   1.407       .  A
C3022      F3025   1.358       .  S
C3023      C3026   1.404       .  A
C3023      C3030   1.402       .  A
C3026      C3027   1.395       .  A
C3026      F3031   1.358       .  S
C3027      C3028   1.405       .  A
C3027      F3033   1.358       .  S
C3028      C3029   1.406       .  A
C3029      C3030   1.393       .  A
C3029      F3032   1.358       .  S
C3030      F3034   1.358       .  S
C3037      C3038   1.408       .  A
C3037      C3042   1.399       .  A
C3037      F3055   1.358       .  S
C3038      C3043   1.489       .  S
C3038      C3039   1.409       .  A
C3039      C3040   1.401       .  A
C3039      F3044   1.358       .  S
C3040      C3041   1.405       .  A
C3040      F3056   1.358       .  S
C3041      C3042   1.406       .  A
C3042      F3045   1.358       .  S
C3043      C3046   1.408       .  A
C3043      C3050   1.404       .  A
C3046      C3047   1.404       .  A
C3046      F3051   1.357       .  S
C3047      C3048   1.411   1_565  A
C3047      F3053   1.357   1_565  S
C3048      C3049   1.415   1_545  A
C3049      C3050   1.394       .  A
C3049      F3052   1.359       .  S
C3050      F3054   1.359       .  S
C3057      C3058   1.400       .  A
C3057      C3062   1.394       .  A
C3057      F3075   1.358       .  S
C3058      C3063   1.485       .  S
C3058      C3059   1.411       .  A
C3059      C3060   1.406       .  A
C3059      F3064   1.358       .  S
C3060      C3061   1.406       .  A
C3060      F3076   1.357       .  S
C3061      C3062   1.414       .  A
C3062      F3065   1.359       .  S
C3063      C3066   1.411       .  A
C3063      C3070   1.400       .  A
C3066      C3067   1.406       .  A
C3066      F3071   1.358       .  S
C3067      C3068   1.406       .  A
C3067      F3073   1.358       .  S
C3068      C3069   1.414       .  A
C3069      C3070   1.394       .  A
C3069      F3072   1.358       .  S
C3070      F3074   1.358       .  S
C3077      C3078   1.402       .  A
C3077      C3082   1.397       .  A
C3077      F3095   1.358       .  S
C3078      C3083   1.481       .  S
C3078      C3079   1.405       .  A
C3079      C3080   1.400       .  A
C3079      F3084   1.358       .  S
C3080      C3081   1.411       .  A
C3080      F3096   1.358       .  S
C3081      C3082   1.415       .  A
C3082      F3085   1.358       .  S
C3083      C3086   1.403       .  A
C3083      C3090   1.403       .  A
C3086      C3087   1.398       .  A
C3086      F3091   1.358       .  S
C3087      C3088   1.413       .  A
C3087      F3093   1.356       .  S
C3088      C3089   1.414       .  A
C3089      C3090   1.400       .  A
C3089      F3092   1.358   1_545  S
C3090      F3094   1.358   1_545  S
