geometry optimzed in LAMMPS
_audit_creation_date              2020-11-30 
_audit_creation_method            'lammps2cif' 
_symmetry_space_group_name_H-M    'P1' 
_symmetry_Int_Tables_number       1 
_symmetry_cell_setting            triclinic 
loop_ 
_symmetry_equiv_pos_as_xyz 
  x,y,z 
_cell_length_a                    53.685072936585506 
_cell_length_b                    54.35975873491724 
_cell_length_c                    44.53361051819692 
_cell_angle_alpha                 89.23220187114129 
_cell_angle_beta                  90.47541355792403 
_cell_angle_gamma                 89.89003424205863 
loop_ 
_atom_site_label 
_atom_site_type_symbol 
_atom_site_fract_x 
_atom_site_fract_y 
_atom_site_fract_z 
_atom_site_charge 
O1          O  0.38098414  0.02909677  0.26679978    -0.86210
O2          O  0.37983563  0.98058519  0.27331020    -0.83250
C3          C  0.37925252  0.95811456  0.26869526     0.97250
O4          O  0.36656740  0.95026214  0.24659345    -0.83290
O5          O  0.32114515  0.97514266  0.23963747    -0.85930
C6          C  0.30531801  0.99143872  0.23416774     1.01780
O7          O  0.31098253  0.00959872  0.21754163    -0.78690
O8          O  0.34091849  0.02939086  0.26089393    -0.78880
C9          C  0.35947312  0.03091708  0.27825426     1.01730
O10         O  0.40420885  0.02308254  0.20852623    -0.86210
O11         O  0.40512169  0.97196960  0.21721405    -0.83270
C12         C  0.39699752  0.95742599  0.19733501     0.97270
O13         O  0.37554951  0.96008195  0.18690011    -0.83300
O14         O  0.33366085  0.98474110  0.17357910    -0.85900
C15         C  0.34104568  0.00411292  0.15914623     1.01750
O16         O  0.34749645  0.02303626  0.17328133    -0.78720
O17         O  0.37384459  0.04921454  0.21449859    -0.78870
C18         C  0.39577295  0.04464600  0.20572467     1.01710
Cr19       Cr  0.39103891  0.00106819  0.24003166     1.93740
Cr20       Cr  0.34922954  0.96999091  0.21266237     1.93210
Cr21       Cr  0.34439621  0.02615051  0.21690209     1.39100
O22         O  0.36208372  0.99894969  0.22218707    -1.23960
O23         O  0.37771639  0.02035867  0.01897839    -0.86210
O24         O  0.37412723  0.97074658  0.01425148    -0.83250
C25         C  0.37208733  0.94940480  0.00432335     0.97250
O26         O  0.36206891  0.94638394  0.47861788    -0.83290
O27         O  0.31689038  0.97379823  0.47447865    -0.85930
C28         C  0.30237296  0.99206285  0.47314094     1.01780
O29         O  0.31021433  0.01141787  0.46064095    -0.78690
O30         O  0.33784036  0.02259055  0.01192431    -0.78880
C31         C  0.35605169  0.02101977  0.03001932     1.01730
O32         O  0.40385237  0.02182739  0.46255998    -0.86210
O33         O  0.40314625  0.96981297  0.46100702    -0.83270
C34         C  0.39673282  0.96144159  0.43552721     0.97270
O35         O  0.37677985  0.96870058  0.42353812    -0.83300
O36         O  0.33374530  0.99355944  0.41453903    -0.85900
C37         C  0.34270503  0.01421668  0.40571252     1.01750
O38         O  0.34935849  0.03004803  0.42452000    -0.78720
O39         O  0.37414616  0.04801350  0.47294299    -0.78870
C40         C  0.39603013  0.04373938  0.46369309     1.01710
Cr41       Cr  0.38820926  0.99595257  0.48775433     1.93740
Cr42       Cr  0.34755565  0.97240551  0.44922693     1.93210
Cr43       Cr  0.34380210  0.02633320  0.46773343     1.39100
O44         O  0.36021876  0.99818570  0.46760983    -1.23960
O45         O  0.52206608  0.84289966  0.13968546    -0.86850
O46         O  0.50573422  0.81508328  0.09263324    -0.83250
C47         C  0.48566789  0.80698806  0.10347561     0.97250
O48         O  0.46826898  0.82191262  0.10848182    -0.83290
O49         O  0.44313006  0.86854021  0.11748750    -0.85930
C50         C  0.45118930  0.87831867  0.14175523     1.01780
O51         O  0.47355529  0.87705013  0.14680044    -0.78690
O52         O  0.52078141  0.88262213  0.14575687    -0.78880
C53         C  0.52215366  0.86101955  0.15696148     1.01730
O54         O  0.54406376  0.87776671  0.09751481    -0.86210
O55         O  0.52124227  0.85240018  0.05278740    -0.83270
C56         C  0.50327530  0.84621101  0.03621174     0.97270
O57         O  0.48276934  0.83840587  0.04751412    -0.83300
O58         O  0.45918089  0.88018146  0.05707883    -0.85900
C59         C  0.45262343  0.90036311  0.06728561     1.01750
O60         O  0.46322729  0.90768475  0.09152096    -0.78720
O61         O  0.51739301  0.90760188  0.08779149    -0.78870
C62         C  0.53962522  0.89963588  0.08860970     1.01710
Cr63       Cr  0.52160968  0.84801290  0.09585265     1.93740
Cr64       Cr  0.46520502  0.85251383  0.08406230     1.93210
Cr65       Cr  0.49359484  0.89251029  0.11627975     1.39100
O66         O  0.49355385  0.86464869  0.09770089    -1.23960
O67         O  0.52596980  0.84213931  0.39092195    -0.86210
O68         O  0.51217274  0.81637920  0.34117617    -0.83250
C69         C  0.49205871  0.80815815  0.35190190     0.97250
O70         O  0.47360640  0.82248770  0.35465496    -0.83290
O71         O  0.44674360  0.86807323  0.36411341    -0.85930
C72         C  0.45215374  0.87701379  0.38965331     1.01780
O73         O  0.47384513  0.87391820  0.39857871    -0.78690
O74         O  0.52356702  0.88072816  0.40069163    -0.78880
C75         C  0.52433257  0.85879324  0.40997793     1.01730
O76         O  0.54802413  0.88090031  0.35053602    -0.86210
O77         O  0.52816615  0.85611786  0.30401390    -0.83270
C78         C  0.51119198  0.84967355  0.28622095     0.97270
O79         O  0.49030496  0.84233807  0.29657835    -0.83300
O80         O  0.46687025  0.88503466  0.30925017    -0.85900
C81         C  0.46098467  0.90451721  0.32229487     1.01750
O82         O  0.46945292  0.90869036  0.34837708    -0.78720
O83         O  0.52021901  0.91006337  0.34770600    -0.78870
C84         C  0.54199751  0.90281491  0.34286445     1.01710
Cr85       Cr  0.52697832  0.84995915  0.34716816     1.93740
Cr86       Cr  0.47122405  0.85459720  0.33255635     1.93210
Cr87       Cr  0.49686433  0.89189200  0.37264484     1.39100
O88         O  0.49847459  0.86591119  0.34977717    -1.23960
O89         O  0.49087286  0.13454238  0.11036918    -0.86210
O90         O  0.53982222  0.13767597  0.11601747    -0.83250
C91         C  0.56121502  0.13435994  0.12559755     0.97250
O92         O  0.56668057  0.14462153  0.15047240    -0.83290
O93         O  0.54181994  0.19233977  0.15394852    -0.85930
C94         C  0.52394954  0.20759668  0.15451132     1.01780
O95         O  0.50352813  0.20139937  0.16633802    -0.78690
O96         O  0.48962599  0.17376217  0.11881839    -0.78880
C97         C  0.49048469  0.15651954  0.10054085     1.01730
O98         O  0.48938738  0.10908748  0.16834009    -0.86210
O99         O  0.54146487  0.10736101  0.17042767    -0.83270
C100        C  0.55060777  0.11380451  0.19561389     0.97270
O101        O  0.54299625  0.13337391  0.20658833    -0.83300
O102        O  0.52247235  0.17782682  0.21346967    -0.85900
C103        C  0.50162569  0.17000390  0.22348258     1.01750
O104        O  0.48445459  0.16385817  0.20568012    -0.78720
O105        O  0.46363334  0.13950987  0.15846365    -0.78870
C106        C  0.46751742  0.11749552  0.16712678     1.01710
Cr107      Cr  0.51515648  0.12350901  0.14270851     1.93740
Cr108      Cr  0.54187876  0.16199273  0.17964937     1.93210
Cr109      Cr  0.48686459  0.16858145  0.16230760     1.39100
O110        O  0.51451004  0.15114276  0.16219756    -1.23960
O111        O  0.48557188  0.13407580  0.36179224    -0.86210
O112        O  0.53464306  0.13886255  0.36255122    -0.83250
C113        C  0.55663947  0.13676303  0.37065231     0.97250
O114        O  0.56295107  0.14736157  0.39501199    -0.83290
O115        O  0.53724828  0.19412266  0.39868846    -0.85930
C116        C  0.51966885  0.20932853  0.40149294     1.01780
O117        O  0.49963308  0.20191990  0.41336068    -0.78690
O118        O  0.48229040  0.17326517  0.36856641    -0.78880
C119        C  0.48316561  0.15563428  0.35076899     1.01730
O120        O  0.48860280  0.10915567  0.42009461    -0.86210
O121        O  0.54046882  0.10971324  0.41839493    -0.83270
C122        C  0.54992301  0.11680647  0.44323312     0.97270
O123        O  0.54360507  0.13712346  0.45359179    -0.83300
O124        O  0.52105293  0.18089976  0.46001482    -0.85900
C125        C  0.50090640  0.17323721  0.47210722     1.01750
O126        O  0.48402851  0.16494236  0.45558928    -0.78720
O127        O  0.46130576  0.13857287  0.41256917    -0.78870
C128        C  0.46662682  0.11706542  0.42222642     1.01710
Cr129      Cr  0.51221845  0.12436882  0.39192357     1.93740
Cr130      Cr  0.53940432  0.16462752  0.42542429     1.93210
Cr131      Cr  0.48346724  0.16868324  0.41234255     1.39100
O132        O  0.51162663  0.15231564  0.41049251    -1.23960
O133        O  0.66792988  0.98827943  0.49366192    -0.86210
O134        O  0.69995587  0.00104939  0.03759980    -0.83250
C135        C  0.70653697  0.02126552  0.02573713     0.97250
O136        O  0.69168158  0.03948371  0.02568055    -0.83290
O137        O  0.64350050  0.06606263  0.02473004    -0.85930
C138        C  0.63075593  0.06093955  0.50118560     1.01780
O139        O  0.63211471  0.03967065  0.49212204    -0.78690
O140        O  0.62787114  0.99197368  0.48771793    -0.78880
C141        C  0.64951664  0.99092270  0.47656447     1.01730
O142        O  0.63505400  0.96459442  0.03740329    -0.86210
O143        O  0.66437509  0.98410544  0.08077941    -0.83270
C144        C  0.67232346  0.00054210  0.09783930     0.97270
O145        O  0.67977731  0.02096222  0.08640717    -0.83300
O146        O  0.63567611  0.04426601  0.08276176    -0.85900
C147        C  0.61465445  0.05094466  0.07345616     1.01750
O148        O  0.60624755  0.04216613  0.04898024    -0.78720
O149        O  0.60585965  0.99109379  0.04760607    -0.78870
C150        C  0.61387195  0.96937073  0.04839656     1.01710
Cr151      Cr  0.66569042  0.98621271  0.03732466     1.93740
Cr152      Cr  0.66237774  0.04096088  0.05332759     1.93210
Cr153      Cr  0.61965032  0.01590883  0.02047517     1.39100
O154        O  0.64906234  0.01429425  0.03769020    -1.23960
O155        O  0.67152329  0.99121419  0.24530391    -0.86210
O156        O  0.69798713  0.00470646  0.29475034    -0.83250
C157        C  0.70684976  0.02411783  0.28320148     0.97250
O158        O  0.69240747  0.04207704  0.27855099    -0.83290
O159        O  0.64723613  0.06988353  0.27051164    -0.85930
C160        C  0.63787934  0.06501122  0.24481243     1.01780
O161        O  0.63753822  0.04315100  0.23744133    -0.78690
O162        O  0.63191256  0.99548301  0.23433193    -0.78880
C163        C  0.65438122  0.99285665  0.22595357     1.01730
O164        O  0.63334648  0.96938363  0.28283264    -0.86210
O165        O  0.65718832  0.98939639  0.33147761    -0.83270
C166        C  0.66599340  0.00536988  0.34877352     0.97270
O167        O  0.67544054  0.02496889  0.33755076    -0.83300
O168        O  0.63268243  0.04991696  0.32761798    -0.85900
C169        C  0.61277017  0.05698532  0.31556374     1.01750
O170        O  0.60619385  0.04830535  0.29017441    -0.78720
O171        O  0.60458686  0.99652098  0.29138461    -0.78870
C172        C  0.61143881  0.97431474  0.29122393     1.01710
Cr173      Cr  0.66409096  0.99027776  0.28845622     1.93740
Cr174      Cr  0.66159822  0.04503440  0.30219347     1.93210
Cr175      Cr  0.62124350  0.02066988  0.26478143     1.39100
O176        O  0.64870051  0.01869654  0.28559386    -1.23960
O177        O  0.13335005  0.02486963  0.48580111    -0.86210
O178        O  0.13461132  0.97665509  0.48970446    -0.83250
C179        C  0.13202126  0.95510328  0.49803673     0.97250
O180        O  0.14157319  0.94899027  0.02333634    -0.83290
O181        O  0.18939906  0.97349695  0.02948194    -0.85930
C182        C  0.20488397  0.99079771  0.03281244     1.01780
O183        O  0.19788972  0.00929070  0.04732865    -0.78690
O184        O  0.17291133  0.02639221  0.49777646    -0.78880
C185        C  0.15613589  0.02563931  0.47791965     1.01730
O186        O  0.10477613  0.02527180  0.04226682    -0.86210
O187        O  0.10218450  0.97365354  0.04266512    -0.83270
C188        C  0.10807049  0.96403341  0.06820715     0.97270
O189        O  0.12894489  0.96905305  0.07958384    -0.83300
O190        O  0.17403563  0.99013137  0.08924458    -0.85900
C191        C  0.16579681  0.00977083  0.10109232     1.01750
O192        O  0.15840097  0.02706182  0.08420089    -0.78720
O193        O  0.13627741  0.05023784  0.03640599    -0.78870
C194        C  0.11423889  0.04630719  0.04532259     1.01710
Cr195      Cr  0.11999724  0.00026763  0.01648795     1.93740
Cr196      Cr  0.15838903  0.97210411  0.05408858     1.93210
Cr197      Cr  0.16526184  0.02678848  0.04111675     1.39100
O198        O  0.14742583  0.99979037  0.03781321    -1.23960
O199        O  0.12574299  0.01802091  0.24214751    -0.86210
O200        O  0.12677658  0.97175551  0.25502548    -0.83250
C201        C  0.12733683  0.95092692  0.26628865     0.97250
O202        O  0.14235933  0.94690956  0.28808371    -0.83290
O203        O  0.18958647  0.97299495  0.27982773    -0.85930
C204        C  0.20523589  0.99038885  0.27932630     1.01780
O205        O  0.19953608  0.01103127  0.29010387    -0.78690
O206        O  0.16634819  0.02174205  0.24510863    -0.78880
C207        C  0.14698927  0.01844338  0.22943052     1.01730
O208        O  0.10735960  0.02584945  0.30436063    -0.86210
O209        O  0.10642228  0.97517853  0.31359484    -0.83270
C210        C  0.11664947  0.96578444  0.33693877     0.97270
O211        O  0.13867542  0.97115399  0.34353611    -0.83300
O212        O  0.18275456  0.99489652  0.33925377    -0.85900
C213        C  0.17508004  0.01503743  0.35041829     1.01750
O214        O  0.16549636  0.03115118  0.33302936    -0.78720
O215        O  0.13587112  0.04983669  0.28577386    -0.78870
C216        C  0.11459583  0.04705995  0.29741790     1.01710
Cr217      Cr  0.11825156  0.99815288  0.28012266     1.93740
Cr218      Cr  0.16292299  0.97324256  0.31097760     1.93210
Cr219      Cr  0.16571075  0.02685839  0.28896737     1.39100
O220        O  0.14869483  0.99936785  0.29384924    -1.23960
O221        O  0.99069106  0.84090852  0.12230562    -0.86210
O222        O  0.00780014  0.80997711  0.16687561    -0.83250
C223        C  0.02798767  0.80439234  0.15401144     0.97250
O224        O  0.04521688  0.81995009  0.15155577    -0.83290
O225        O  0.07011483  0.86674193  0.15001366    -0.85930
C226        C  0.06432312  0.87828089  0.12563905     1.01780
O227        O  0.04193705  0.87898180  0.11824038    -0.78690
O228        O  0.99262066  0.88060505  0.11728702    -0.78880
C229        C  0.99023773  0.85957723  0.10527813     1.01730
O230        O  0.96768025  0.87303985  0.16628012    -0.86210
O231        O  0.99085728  0.84423880  0.21084258    -0.83270
C232        C  0.00857764  0.83580688  0.22682383     0.97270
O233        O  0.02901322  0.82928469  0.21434402    -0.83300
O234        O  0.04973582  0.87294775  0.20896303    -0.85900
C235        C  0.05508103  0.89419295  0.20100180     1.01750
O236        O  0.04626133  0.90301760  0.17639967    -0.78720
O237        O  0.99473766  0.90085603  0.17841403    -0.78870
C238        C  0.97238870  0.89443135  0.17603599     1.01710
Cr239      Cr  0.99088004  0.84309178  0.16656128     1.93740
Cr240      Cr  0.04676324  0.84752888  0.17974583     1.93210
Cr241      Cr  0.01874105  0.88927780  0.14882913     1.39100
O242        O  0.01884315  0.86002208  0.16533447    -1.23960
O243        O  0.98601145  0.84171423  0.37024182    -0.86210
O244        O  0.00106481  0.81400329  0.41885921    -0.83250
C245        C  0.02051727  0.80678813  0.40588647     0.97250
O246        O  0.03875081  0.82137623  0.40458309    -0.83290
O247        O  0.06584608  0.86763976  0.40225112    -0.85930
C248        C  0.06095439  0.88030049  0.37861286     1.01780
O249        O  0.03975853  0.87818717  0.36778528    -0.78690
O250        O  0.99050838  0.88095180  0.36101112    -0.78880
C251        C  0.98822661  0.85910420  0.35134176     1.01730
O252        O  0.96208458  0.87660682  0.41100528    -0.86210
O253        O  0.98356590  0.85154565  0.45826122    -0.83270
C254        C  0.00066848  0.84448837  0.47597314     0.97270
O255        O  0.02076288  0.83531681  0.46549895    -0.83300
O256        O  0.04483785  0.87815578  0.45831552    -0.85900
C257        C  0.05042602  0.89865472  0.44720986     1.01750
O258        O  0.04029709  0.90575200  0.42276093    -0.78720
O259        O  0.98909664  0.90570961  0.41958063    -0.78870
C260        C  0.96703895  0.89811474  0.41989058     1.01710
Cr261      Cr  0.98488464  0.84693076  0.41449826     1.93740
Cr262      Cr  0.04057958  0.85068222  0.43097864     1.93210
Cr263      Cr  0.01454558  0.89110562  0.39414455     1.39100
O264        O  0.01331408  0.86321826  0.41370921    -1.23960
O265        O  0.02165579  0.13549519  0.14813148    -0.86210
O266        O  0.97250128  0.13805129  0.14219577    -0.83250
C267        C  0.95125449  0.13544377  0.13171055     0.97250
O268        O  0.94636332  0.14681748  0.10712318    -0.83290
O269        O  0.97190932  0.19401882  0.10364358    -0.85930
C270        C  0.98955283  0.20923559  0.10110100     1.01780
O271        O  0.00972770  0.20188638  0.08986260    -0.78690
O272        O  0.02410247  0.17505378  0.13899826    -0.78880
C273        C  0.02258482  0.15743731  0.15746890     1.01730
O274        O  0.02417973  0.10983275  0.09145970    -0.86210
O275        O  0.97203343  0.10903394  0.08770828    -0.83270
C276        C  0.96309239  0.11630038  0.06247962     0.97270
O277        O  0.96971050  0.13640971  0.05148117    -0.83300
O278        O  0.99146876  0.17966054  0.04487040    -0.85900
C279        C  0.01179127  0.17083815  0.03481051     1.01750
O280        O  0.02889156  0.16410486  0.05258643    -0.78720
O281        O  0.04988410  0.14006641  0.10076227    -0.78870
C282        C  0.04608131  0.11815437  0.09236169     1.01710
Cr283      Cr  0.99779840  0.12447515  0.11602220     1.93740
Cr284      Cr  0.97156051  0.16407899  0.07844071     1.93210
Cr285      Cr  0.02657144  0.16928886  0.09564975     1.39100
O286        O  0.99871531  0.15230660  0.09620074    -1.23960
O287        O  0.02121547  0.13341818  0.39752359    -0.86210
O288        O  0.97269602  0.13803010  0.39576905    -0.83250
C289        C  0.95036728  0.14071981  0.38905594     0.97250
O290        O  0.94502599  0.15041893  0.36350754    -0.83290
O291        O  0.97275415  0.19478347  0.35593717    -0.85930
C292        C  0.99098381  0.20915517  0.35267906     1.01780
O293        O  0.01022182  0.20131019  0.33992669    -0.78690
O294        O  0.02432292  0.17286633  0.38916749    -0.78880
C295        C  0.02319197  0.15512881  0.40749167     1.01730
O296        O  0.01917188  0.10839199  0.34024212    -0.86210
O297        O  0.96703040  0.10899976  0.34151631    -0.83270
C298        C  0.95744876  0.11576633  0.31641284     0.97270
O299        O  0.96313586  0.13641849  0.30577392    -0.83300
O300        O  0.98854458  0.17812933  0.29548585    -0.85900
C301        C  0.00943643  0.17067348  0.28512419     1.01750
O302        O  0.02600794  0.16305512  0.30285187    -0.78720
O303        O  0.04631848  0.13717251  0.34881985    -0.78870
C304        C  0.04120338  0.11615473  0.33845022     1.01710
Cr305      Cr  0.99513857  0.12368595  0.36723709     1.93740
Cr306      Cr  0.96919928  0.16461045  0.33148837     1.93210
Cr307      Cr  0.02494338  0.16757795  0.34558063     1.39100
O308        O  0.99637400  0.15163595  0.34741220    -1.23960
O309        O  0.84611771  0.98725968  0.26631711    -0.86210
O310        O  0.81335654  0.00057442  0.22063814    -0.83250
C311        C  0.80657523  0.02007502  0.23334032     0.97250
O312        O  0.82152286  0.03787904  0.23461930    -0.83290
O313        O  0.86621406  0.06596723  0.23259899    -0.85930
C314        C  0.87889328  0.06235615  0.25667877     1.01780
O315        O  0.88345208  0.04070745  0.26497099    -0.78690
O316        O  0.88646851  0.99135706  0.26894291    -0.78880
C317        C  0.86567716  0.98841987  0.28215629     1.01730
O318        O  0.87871725  0.96443340  0.22293575    -0.86210
O319        O  0.84848790  0.98403170  0.17768329    -0.83270
C320        C  0.83834646  0.00036476  0.16123273     0.97270
O321        O  0.83078422  0.02039359  0.17301478    -0.83300
O322        O  0.87421700  0.04597136  0.17413142    -0.85900
C323        C  0.89576919  0.05214523  0.18192037     1.01750
O324        O  0.90518464  0.04316990  0.20614401    -0.78720
O325        O  0.90546343  0.99137598  0.20713806    -0.78870
C326        C  0.89955774  0.96915347  0.21103061     1.01710
Cr327      Cr  0.84768750  0.98588375  0.22182686     1.93740
Cr328      Cr  0.84872876  0.04073239  0.20494680     1.93210
Cr329      Cr  0.89343761  0.01632146  0.23553038     1.39100
O330        O  0.86345650  0.01447273  0.22046881    -1.23960
O331        O  0.84459232  0.99034736  0.01665799    -0.86210
O332        O  0.81575306  0.00390209  0.46797978    -0.83250
C333        C  0.80776916  0.02369408  0.47918450     0.97250
O334        O  0.82203744  0.04194030  0.48076775    -0.83290
O335        O  0.86726245  0.06962195  0.48711821    -0.85930
C336        C  0.87880401  0.06354246  0.01121954     1.01780
O337        O  0.87648303  0.04204357  0.01956452    -0.78690
O338        O  0.88427911  0.99457905  0.02555210    -0.78880
C339        C  0.86230928  0.99182004  0.03538880     1.01730
O340        O  0.88138411  0.96878457  0.47588380    -0.86210
O341        O  0.85497488  0.98795644  0.42843240    -0.83270
C342        C  0.84858125  0.00477185  0.41009233     0.97270
O343        O  0.83967032  0.02517478  0.41984166    -0.83300
O344        O  0.88094645  0.05108525  0.43124729    -0.85900
C345        C  0.90027975  0.05891723  0.44340044     1.01750
O346        O  0.90803526  0.04808544  0.46726305    -0.78720
O347        O  0.91068639  0.99594576  0.46806146    -0.78870
C348        C  0.90330224  0.97396486  0.46724374     1.01710
Cr349      Cr  0.85010785  0.98950314  0.47228856     1.93740
Cr350      Cr  0.85252538  0.04486383  0.45622409     1.93210
Cr351      Cr  0.89344198  0.01988369  0.49344478     1.39100
O352        O  0.86578410  0.01794764  0.47293175    -1.23960
O353        O  0.49149864  0.38081997  0.14671407    -0.86210
O354        O  0.54082903  0.37559537  0.14449492    -0.83250
C355        C  0.56240358  0.37901405  0.13596969     0.97250
O356        O  0.56830338  0.36929133  0.11108009    -0.83290
O357        O  0.54445230  0.32205509  0.10843538    -0.85930
C358        C  0.52722572  0.30654197  0.10563493     1.01780
O359        O  0.50616716  0.31332131  0.09503372    -0.78690
O360        O  0.48731784  0.34170503  0.13832828    -0.78880
C361        C  0.48795561  0.35906179  0.15653677     1.01730
O362        O  0.49333887  0.40640623  0.08877786    -0.86210
O363        O  0.54461411  0.40561175  0.08865039    -0.83270
C364        C  0.55274353  0.39856465  0.06323435     0.97270
O365        O  0.54596282  0.37835680  0.05304672    -0.83300
O366        O  0.52640213  0.33296491  0.04790813    -0.85900
C367        C  0.50586799  0.33931521  0.03539703     1.01750
O368        O  0.48929247  0.34915654  0.05095367    -0.78720
O369        O  0.46635049  0.37628564  0.09371645    -0.78870
C370        C  0.47153426  0.39835921  0.08621204     1.01710
Cr371      Cr  0.51748270  0.39062494  0.11600109     1.93740
Cr372      Cr  0.54449559  0.35106664  0.08152747     1.93210
Cr373      Cr  0.48888210  0.34618734  0.09461316     1.39100
O374        O  0.51672063  0.36281052  0.09692131    -1.23960
O375        O  0.49366641  0.38129560  0.40224081    -0.86210
O376        O  0.54178465  0.37697537  0.39468905    -0.83250
C377        C  0.56344560  0.37826378  0.38573255     0.97250
O378        O  0.56757992  0.36942858  0.35985844    -0.83290
O379        O  0.53948612  0.32389201  0.35366643    -0.85930
C380        C  0.52080428  0.30978667  0.35156506     1.01780
O381        O  0.50115324  0.31796246  0.33926438    -0.78690
O382        O  0.48921252  0.34298276  0.38943618    -0.78880
C383        C  0.49185232  0.35863917  0.40952226     1.01730
O384        O  0.49155823  0.41119491  0.34671658    -0.86210
O385        O  0.54352439  0.41010787  0.34282160    -0.83270
C386        C  0.55170259  0.40465135  0.31686249     0.97270
O387        O  0.54433367  0.38510719  0.30519687    -0.83300
O388        O  0.52036269  0.34246069  0.29490926    -0.85900
C389        C  0.49903103  0.34996906  0.28534955     1.01750
O390        O  0.48333125  0.35796576  0.30361057    -0.78720
O391        O  0.46475503  0.38133920  0.35255566    -0.78870
C392        C  0.46960060  0.40331726  0.34451483     1.01710
Cr393      Cr  0.51730546  0.39361098  0.37007496     1.93740
Cr394      Cr  0.54122388  0.35538753  0.32991027     1.93210
Cr395      Cr  0.48629129  0.35124206  0.34650964     1.39100
O396        O  0.51478654  0.36722893  0.34803289    -1.23960
O397        O  0.67230673  0.52675590  0.26461271    -0.86210
O398        O  0.70286059  0.51066625  0.22052606    -0.83250
C399        C  0.70887609  0.49037118  0.23290260     0.97250
O400        O  0.69336368  0.47314429  0.23494382    -0.83290
O401        O  0.64726093  0.44810010  0.23755189    -0.85930
C402        C  0.63689629  0.45321958  0.26244057     1.01780
O403        O  0.63614335  0.47525856  0.26971799    -0.78690
O404        O  0.63235424  0.52420175  0.27032291    -0.78880
C405        C  0.65391892  0.52707259  0.28184841     1.01730
O406        O  0.63867102  0.54889102  0.21976489    -0.86210
O407        O  0.66716853  0.52769996  0.17656642    -0.83270
C408        C  0.67585030  0.51073052  0.16077988     0.97270
O409        O  0.68243810  0.49035561  0.17328211    -0.83300
O410        O  0.63720953  0.46828404  0.17850483    -0.85900
C411        C  0.61663166  0.46163680  0.18877077     1.01750
O412        O  0.60913329  0.47066233  0.21345145    -0.78720
O413        O  0.60910223  0.52209539  0.21060586    -0.78870
C414        C  0.61713095  0.54382170  0.20959460     1.01710
Cr415      Cr  0.66912879  0.52681238  0.22051581     1.93740
Cr416      Cr  0.66468480  0.47179557  0.20724536     1.93210
Cr417      Cr  0.62326135  0.49826752  0.23966630     1.39100
O418        O  0.65215893  0.49902392  0.22190699    -1.23960
O419        O  0.67253219  0.52311636  0.01687267    -0.86210
O420        O  0.70288554  0.50856459  0.47010910    -0.83250
C421        C  0.70831634  0.48752496  0.48088529     0.97250
O422        O  0.69239297  0.47049101  0.48043536    -0.83290
O423        O  0.64441142  0.44681011  0.48064409    -0.85930
C424        C  0.63305030  0.45210210  0.00470797     1.01780
O425        O  0.63602770  0.47305508  0.01431798    -0.78690
O426        O  0.63215244  0.52086971  0.02232630    -0.78880
C427        C  0.65377983  0.52236230  0.03392309     1.01730
O428        O  0.64058746  0.54944996  0.47403580    -0.86210
O429        O  0.66682373  0.52947695  0.42833974    -0.83270
C430        C  0.67224220  0.51279236  0.41014917     0.97270
O431        O  0.68004987  0.49188437  0.41994816    -0.83300
O432        O  0.63520990  0.47067721  0.42435937    -0.85900
C433        C  0.61489651  0.46354542  0.43470291     1.01750
O434        O  0.60736834  0.47316684  0.45895003    -0.78720
O435        O  0.60909045  0.52534039  0.46301296    -0.78870
C436        C  0.61853748  0.54656395  0.46424262     1.01710
Cr437      Cr  0.66970144  0.52591185  0.47220564     1.93740
Cr438      Cr  0.66295087  0.47187115  0.45293146     1.93210
Cr439      Cr  0.62272192  0.49832669  0.48810609     1.39100
O440        O  0.65154001  0.49892029  0.47036547    -1.23960
O441        O  0.38572545  0.49387719  0.48248906    -0.86210
O442        O  0.38081512  0.54176553  0.49063485    -0.83250
C443        C  0.38366294  0.56235428  0.50145500     0.97250
O444        O  0.37168530  0.56677169  0.02544405    -0.83290
O445        O  0.32365031  0.54173986  0.02289494    -0.85930
C446        C  0.30816327  0.52420948  0.02236667     1.01780
O447        O  0.31419573  0.50316318  0.03280770    -0.78690
O448        O  0.34562447  0.48922217  0.48800043    -0.78880
C449        C  0.36416593  0.49121227  0.47091282     1.01730
O450        O  0.40801017  0.49081850  0.04304573    -0.86210
O451        O  0.40786718  0.54117548  0.04782388    -0.83270
C452        C  0.40020755  0.54905624  0.07291913     0.97270
O453        O  0.37934611  0.54199508  0.08187760    -0.83300
O454        O  0.33410676  0.52012283  0.08278921    -0.85900
C455        C  0.34141587  0.49951767  0.09398031     1.01750
O456        O  0.34972287  0.48353566  0.07648846    -0.78720
O457        O  0.37837465  0.46474445  0.03185300    -0.78870
C458        C  0.39977316  0.46927258  0.04278770     1.01710
Cr459      Cr  0.39394408  0.51654313  0.01722747     1.93740
Cr460      Cr  0.35242560  0.54092095  0.05164281     1.93210
Cr461      Cr  0.34800627  0.48686614  0.03241849     1.39100
O462        O  0.36493816  0.51459272  0.03424482    -1.23960
O463        O  0.37999459  0.49119459  0.23478684    -0.86210
O464        O  0.37847022  0.53984644  0.23683311    -0.83250
C465        C  0.38084131  0.56127744  0.24530038     0.97250
O466        O  0.36966027  0.56741158  0.26922223    -0.83290
O467        O  0.32090001  0.54591024  0.27206310    -0.85930
C468        C  0.30450899  0.52952101  0.27480105     1.01780
O469        O  0.31042828  0.50836171  0.28521680    -0.78690
O470        O  0.33975782  0.48974660  0.24139531    -0.78880
C471        C  0.35805090  0.48975595  0.22386578     1.01730
O472        O  0.40337067  0.49172702  0.29488944    -0.86210
O473        O  0.40628533  0.54256679  0.29333927    -0.83270
C474        C  0.39864215  0.55179952  0.31778036     0.97270
O475        O  0.37776324  0.54600298  0.32743255    -0.83300
O476        O  0.33177205  0.52779740  0.33327313    -0.85900
C477        C  0.33804244  0.50738692  0.34580790     1.01750
O478        O  0.34519078  0.48974163  0.32987956    -0.78720
O479        O  0.37261378  0.46613212  0.28690327    -0.78870
C480        C  0.39481995  0.47026274  0.29583069     1.01710
Cr481      Cr  0.39034200  0.51616186  0.26630230     1.93740
Cr482      Cr  0.35032452  0.54489187  0.29899512     1.93210
Cr483      Cr  0.34312114  0.49004566  0.28570348     1.39100
O484        O  0.36132427  0.51694667  0.28399264    -1.23960
O485        O  0.52672821  0.67068943  0.11493247    -0.86210
O486        O  0.51240602  0.69978340  0.16029224    -0.83250
C487        C  0.49201403  0.70663976  0.14821506     0.97250
O488        O  0.47397200  0.69180792  0.14657325    -0.83290
O489        O  0.44686477  0.64580004  0.14454583    -0.85930
C490        C  0.45178768  0.63559682  0.11964136     1.01780
O491        O  0.47355811  0.63731855  0.11125201    -0.78690
O492        O  0.52196406  0.63166134  0.10589373    -0.78880
C493        C  0.52438581  0.65368686  0.09643040     1.01730
O494        O  0.54952707  0.63542707  0.15699671    -0.86210
O495        O  0.52889773  0.66202486  0.20248296    -0.83270
C496        C  0.51234059  0.67115112  0.21884168     0.97270
O497        O  0.49237833  0.67936665  0.20654454    -0.83300
O498        O  0.46956351  0.63536348  0.20173751    -0.85900
C499        C  0.46261695  0.61520547  0.19147067     1.01750
O500        O  0.47080371  0.60786452  0.16627496    -0.78720
O501        O  0.52236178  0.60585212  0.16429451    -0.78870
C502        C  0.54436580  0.61364944  0.16553096     1.01710
Cr503      Cr  0.52780873  0.66590017  0.15864067     1.93740
Cr504      Cr  0.47243012  0.66271443  0.17345055     1.93210
Cr505      Cr  0.49740581  0.62205877  0.13824606     1.39100
O506        O  0.49940331  0.64988003  0.15744210    -1.23960
O507        O  0.52613478  0.67168800  0.36434160    -0.86210
O508        O  0.51119515  0.70062518  0.40919308    -0.83250
C509        C  0.49015906  0.70755971  0.39916503     0.97250
O510        O  0.47269261  0.69199060  0.39756569    -0.83290
O511        O  0.44877784  0.64311898  0.39844401    -0.85930
C512        C  0.45390362  0.63049535  0.37517943     1.01780
O513        O  0.47518769  0.63199857  0.36507209    -0.78690
O514        O  0.52348388  0.63180977  0.35855630    -0.78880
C515        C  0.52444805  0.65356719  0.34730431     1.01730
O516        O  0.55204645  0.63909234  0.40732655    -0.86210
O517        O  0.53091229  0.66567639  0.45162301    -0.83270
C518        C  0.51451420  0.67390687  0.46871979     0.97270
O519        O  0.49369304  0.68101198  0.45738510    -0.83300
O520        O  0.47280745  0.63678962  0.45591105    -0.85900
C521        C  0.46662417  0.61582978  0.44775834     1.01750
O522        O  0.47528896  0.60741499  0.42335608    -0.78720
O523        O  0.52668681  0.60961081  0.42014316    -0.78870
C524        C  0.54827020  0.61833241  0.41981927     1.01710
Cr525      Cr  0.52843539  0.66817970  0.40810000     1.93740
Cr526      Cr  0.47364808  0.66289187  0.42557084     1.93210
Cr527      Cr  0.50052830  0.62175007  0.39299579     1.39100
O528        O  0.50078916  0.65088463  0.40898697    -1.23960
O529        O  0.02281887  0.37868974  0.11047855    -0.86210
O530        O  0.97397514  0.37510150  0.11079617    -0.83250
C531        C  0.95158127  0.37566383  0.11711283     0.97250
O532        O  0.94529417  0.36611874  0.14232556    -0.83290
O533        O  0.97150499  0.32053896  0.15292439    -0.85930
C534        C  0.98955216  0.30590134  0.15682683     1.01780
O535        O  0.00857647  0.31326702  0.17082862    -0.78690
O536        O  0.02434206  0.33958082  0.12180854    -0.78880
C537        C  0.02407237  0.35640395  0.10230715     1.01730
O538        O  0.02025800  0.40618094  0.16660640    -0.86210
O539        O  0.96783965  0.40626777  0.16229934    -0.83270
C540        C  0.95720915  0.40017946  0.18681744     0.97270
O541        O  0.96312173  0.38054090  0.20002242    -0.83300
O542        O  0.98672425  0.33797551  0.21328951    -0.85900
C543        C  0.00747964  0.34517091  0.22464117     1.01750
O544        O  0.02450090  0.35236350  0.20759366    -0.78720
O545        O  0.04688255  0.37605406  0.16137730    -0.78870
C546        C  0.04204886  0.39774435  0.16985670     1.01710
Cr547      Cr  0.99636295  0.39026371  0.13912695     1.93740
Cr548      Cr  0.96852559  0.35144351  0.17590452     1.93210
Cr549      Cr  0.02442647  0.34640486  0.16494746     1.39100
O550        O  0.99642916  0.36310686  0.16074814    -1.23960
O551        O  0.01464956  0.38265177  0.36224235    -0.86210
O552        O  0.96595557  0.37820338  0.37009856    -0.83250
C553        C  0.94462683  0.37595770  0.38064723     0.97250
O554        O  0.94232847  0.36556950  0.40634314    -0.83290
O555        O  0.97098059  0.32042715  0.40693022    -0.85930
C556        C  0.98965975  0.30621177  0.40808966     1.01780
O557        O  0.00980265  0.31444170  0.41877381    -0.78690
O558        O  0.02108162  0.34333075  0.37088996    -0.78880
C559        C  0.01770136  0.36089154  0.35267537     1.01730
O560        O  0.01799983  0.40666597  0.42099952    -0.86210
O561        O  0.96655245  0.40487201  0.42616873    -0.83270
C562        C  0.96048036  0.39750691  0.45243598     0.97270
O563        O  0.96756287  0.37679988  0.46165890    -0.83300
O564        O  0.99191870  0.33354630  0.46501428    -0.85900
C565        C  0.01253699  0.34144717  0.47540322     1.01750
O566        O  0.02753074  0.35201300  0.45785755    -0.78720
O567        O  0.04520302  0.37889155  0.40909141    -0.78870
C568        C  0.04041014  0.40035343  0.41818239     1.01710
Cr569      Cr  0.99167379  0.39157326  0.39622922     1.93740
Cr570      Cr  0.96979488  0.34962611  0.43337951     1.93210
Cr571      Cr  0.02417159  0.34821010  0.41424269     1.39100
O572        O  0.99516429  0.36328993  0.41476098    -1.23960
O573        O  0.83991081  0.52577866  0.49604177    -0.86210
O574        O  0.81231574  0.50977137  0.04380028    -0.83250
C575        C  0.80675401  0.48882609  0.03340889     0.97250
O576        O  0.82257414  0.47173065  0.03394620    -0.83290
O577        O  0.86946326  0.44878996  0.02906693    -0.85930
C578        C  0.87920527  0.45374223  0.50371499     1.01780
O579        O  0.87589003  0.47487043  0.49340729    -0.78690
O580        O  0.87964855  0.52437931  0.48830297    -0.78880
C581        C  0.85770794  0.52652697  0.47786266     1.01730
O582        O  0.87509318  0.55032537  0.03705462    -0.86210
O583        O  0.85017849  0.52977441  0.08353093    -0.83270
C584        C  0.84523587  0.51303033  0.10223024     0.97270
O585        O  0.83797443  0.49193717  0.09329054    -0.83300
O586        O  0.88324406  0.47158334  0.08405782    -0.85900
C587        C  0.90233801  0.46371994  0.07144918     1.01750
O588        O  0.90806780  0.47313129  0.04610251    -0.78720
O589        O  0.90640044  0.52477981  0.04466894    -0.78870
C590        C  0.89762673  0.54632728  0.04493464     1.01710
Cr591      Cr  0.84541326  0.52719353  0.04010699     1.93740
Cr592      Cr  0.85329695  0.47288738  0.05870229     1.93210
Cr593      Cr  0.89100800  0.49947214  0.01951528     1.39100
O594        O  0.86344811  0.50000559  0.04007614    -1.23960
O595        O  0.84457339  0.52732716  0.24583206    -0.86210
O596        O  0.81462168  0.51010240  0.29093616    -0.83250
C597        C  0.80855443  0.48983809  0.27910213     0.97250
O598        O  0.82404832  0.47260093  0.27736606    -0.83290
O599        O  0.87060791  0.44859357  0.27137579    -0.85930
C600        C  0.87951990  0.45574342  0.24607337     1.01780
O601        O  0.87787687  0.47781482  0.23976664    -0.78690
O602        O  0.88457447  0.52565034  0.24022736    -0.78880
C603        C  0.86302380  0.52883055  0.22873259     1.01730
O604        O  0.87927033  0.54824029  0.28991911    -0.86210
O605        O  0.85133816  0.52663801  0.33338869    -0.83270
C606        C  0.84474506  0.50927128  0.35040899     0.97270
O607        O  0.83760162  0.48866063  0.33944218    -0.83300
O608        O  0.88161589  0.46724043  0.33122581    -0.85900
C609        C  0.90162195  0.45964744  0.32078400     1.01750
O610        O  0.90856187  0.46868472  0.29543500    -0.78720
O611        O  0.90848084  0.52067717  0.29877388    -0.78870
C612        C  0.90118034  0.54275058  0.29907790     1.01710
Cr613      Cr  0.84839565  0.52643317  0.28991154     1.93740
Cr614      Cr  0.85361628  0.47099346  0.30363459     1.93210
Cr615      Cr  0.89352310  0.49820259  0.26994254     1.39100
O616        O  0.86533492  0.49872301  0.28868907    -1.23960
O617        O  0.12926888  0.49083277  0.27217914    -0.86210
O618        O  0.13258062  0.53856386  0.26455560    -0.83250
C619        C  0.12994935  0.56007887  0.25618776     0.97250
O620        O  0.13954911  0.56603524  0.23114412    -0.83290
O621        O  0.18759617  0.54349077  0.23020770    -0.85930
C622        C  0.20380426  0.52669171  0.23121848     1.01780
O623        O  0.19892890  0.50554782  0.22087129    -0.78690
O624        O  0.16943697  0.48881450  0.26617219    -0.78880
C625        C  0.15105006  0.48955102  0.28343610     1.01730
O626        O  0.10506167  0.48835803  0.21368679    -0.86210
O627        O  0.10248423  0.53988886  0.21029058    -0.83270
C628        C  0.10941259  0.54920265  0.18531659     0.97270
O629        O  0.13003343  0.54269418  0.17523120    -0.83300
O630        O  0.17596088  0.52327081  0.17029164    -0.85900
C631        C  0.16911149  0.50235095  0.16045847     1.01750
O632        O  0.16343013  0.48522847  0.17837904    -0.78720
O633        O  0.13673653  0.46369748  0.22334236    -0.78870
C634        C  0.11429741  0.46704478  0.21464992     1.01710
Cr635      Cr  0.11884671  0.51430713  0.23874595     1.93740
Cr636      Cr  0.15813744  0.54194877  0.20314500     1.93210
Cr637      Cr  0.16602836  0.48747347  0.22199234     1.39100
O638        O  0.14745650  0.51433512  0.22054261    -1.23960
O639        O  0.13143216  0.48996409  0.02424648    -0.86210
O640        O  0.13866355  0.53906475  0.02205694    -0.83250
C641        C  0.13599057  0.56064962  0.01330440     0.97250
O642        O  0.14588973  0.56625051  0.48817187    -0.83290
O643        O  0.19140863  0.54028172  0.48085134    -0.85930
C644        C  0.20635535  0.52253052  0.47918515     1.01780
O645        O  0.19909431  0.50212795  0.46862264    -0.78690
O646        O  0.17086236  0.48663576  0.01558040    -0.78880
C647        C  0.15340484  0.48637879  0.03405900     1.01730
O648        O  0.10401146  0.49380722  0.46847042    -0.86210
O649        O  0.10565935  0.54553832  0.46961361    -0.83270
C650        C  0.11195663  0.55507586  0.44442908     0.97270
O651        O  0.13081885  0.54654887  0.43217470    -0.83300
O652        O  0.17389574  0.52308198  0.42097503    -0.85900
C653        C  0.16622385  0.50230845  0.41113580     1.01750
O654        O  0.15981498  0.48548501  0.42884164    -0.78720
O655        O  0.13333794  0.46624119  0.47376992    -0.78870
C656        C  0.11141829  0.47203950  0.46497935     1.01710
Cr657      Cr  0.12133050  0.51688020  0.49481146     1.93740
Cr658      Cr  0.16043453  0.54216983  0.45685425     1.93210
Cr659      Cr  0.16476926  0.48692175  0.47196265     1.39100
O660        O  0.14856631  0.51518349  0.47374182    -1.23960
O661        O  0.98965162  0.67022060  0.14183244    -0.86210
O662        O  0.00426535  0.70129902  0.09679075    -0.83250
C663        C  0.02560177  0.70696228  0.10688268     0.97250
O664        O  0.04319167  0.69166596  0.10665773    -0.83290
O665        O  0.06770777  0.64604142  0.10889551    -0.85930
C666        C  0.06369047  0.63599047  0.13445287     1.01780
O667        O  0.04173201  0.63498386  0.14353420    -0.78690
O668        O  0.99161632  0.63060049  0.14652041    -0.78880
C669        C  0.98934316  0.65146696  0.15857499     1.01730
O670        O  0.96550139  0.63792987  0.09768134    -0.86210
O671        O  0.98506334  0.66669177  0.05439107    -0.83270
C672        C  0.00135700  0.67409234  0.03651542     0.97270
O673        O  0.02266923  0.68033600  0.04679930    -0.83300
O674        O  0.04437187  0.63570291  0.05172238    -0.85900
C675        C  0.05174179  0.61547576  0.06213942     1.01750
O676        O  0.04414675  0.60846116  0.08790353    -0.78720
O677        O  0.99219665  0.60858959  0.08794035    -0.78870
C678        C  0.97023540  0.61679327  0.08710581     1.01710
Cr679      Cr  0.98787098  0.66799299  0.09778146     1.93740
Cr680      Cr  0.04268121  0.66306929  0.07985593     1.93210
Cr681      Cr  0.01723515  0.62229228  0.11523126     1.39100
O682        O  0.01586350  0.65102595  0.09716040    -1.23960
O683        O  0.98765142  0.67355932  0.38908489    -0.86210
O684        O  0.00104811  0.70010967  0.33918609    -0.83250
C685        C  0.02002071  0.70913754  0.35193002     0.97250
O686        O  0.03904571  0.69578701  0.35614526    -0.83290
O687        O  0.06870937  0.65196911  0.36699560    -0.85930
C688        C  0.06353623  0.64260074  0.39267377     1.01780
O689        O  0.04133451  0.64283834  0.39977630    -0.78690
O690        O  0.99298040  0.63505413  0.40185692    -0.78880
C691        C  0.98968599  0.65728312  0.40921323     1.01730
O692        O  0.96782532  0.63452580  0.35097138    -0.86210
O693        O  0.98771747  0.65889079  0.30309907    -0.83270
C694        C  0.00449853  0.66674041  0.28590243     0.97270
O695        O  0.02434269  0.67653999  0.29655875    -0.83300
O696        O  0.05015684  0.63576354  0.31057059    -0.85900
C697        C  0.05757548  0.61654820  0.32346609     1.01750
O698        O  0.04861383  0.61052083  0.34896578    -0.78720
O699        O  0.99658637  0.60638526  0.34763168    -0.78870
C700        C  0.97408203  0.61262025  0.34482044     1.01710
Cr701      Cr  0.98775276  0.66584288  0.34596328     1.93740
Cr702      Cr  0.04375512  0.66477404  0.33396966     1.93210
Cr703      Cr  0.01969395  0.62503483  0.37298354     1.39100
O704        O  0.01700190  0.65147245  0.35020822    -1.23960
C705        C  0.01179998  0.68507454  0.48252689    -0.02710
C706        C  0.99550909  0.67392718  0.00347298     0.06970
C707        C  0.97463810  0.66038849  0.49213140    -0.02820
C708        C  0.97284093  0.65489114  0.46134617    -0.02820
C709        C  0.99021884  0.66452813  0.44113318     0.07110
C710        C  0.00885637  0.68068870  0.45164710    -0.03020
Br711      Br  0.03212260  0.69567515  0.42440998    -0.01570
Br712      Br  0.03830383  0.70687155  0.49497267    -0.01640
Br713      Br  0.94626382  0.63429891  0.44643223    -0.01600
Br714      Br  0.94725741  0.64954539  0.01708097    -0.01580
C715        C  0.00220058  0.63935661  0.24162887    -0.02710
C716        C  0.00051733  0.66327427  0.25327528     0.06970
C717        C  0.99038239  0.68218435  0.23518859    -0.02820
C718        C  0.98369506  0.67760424  0.20500557    -0.02820
C719        C  0.98858848  0.65425630  0.19206289     0.07110
C720        C  0.99620704  0.63467146  0.21142022    -0.03020
Br721      Br  0.99825807  0.60092008  0.19799306    -0.01570
Br722      Br  0.01312460  0.61261607  0.26710878    -0.01640
Br723      Br  0.96604703  0.70312692  0.18279011    -0.01600
Br724      Br  0.98509114  0.71419321  0.25228554    -0.01580
C725        C  0.07843073  0.58837848  0.44403890    -0.02710
C726        C  0.10038672  0.57854209  0.43160635     0.06970
C727        C  0.11301874  0.59330706  0.40944379    -0.02820
C728        C  0.10252770  0.61573580  0.39841627    -0.02820
C729        C  0.08006866  0.62479870  0.41020181     0.07110
C730        C  0.06994451  0.61208163  0.43551162    -0.03020
Br731      Br  0.04522587  0.62734654  0.46067467    -0.01570
Br732      Br  0.05793843  0.56910034  0.47101562    -0.01640
Br733      Br  0.12009976  0.63480499  0.36841751    -0.01600
Br734      Br  0.14520203  0.58426815  0.39340590    -0.01580
C735        C  0.07297157  0.57600730  0.04965951    -0.02710
C736        C  0.07180825  0.60165875  0.04642496     0.06970
C737        C  0.09149851  0.61407801  0.03123879    -0.02820
C738        C  0.11270827  0.60098034  0.02133301    -0.02820
C739        C  0.11465928  0.57529374  0.02612029     0.07110
C740        C  0.09410875  0.56294059  0.04018048    -0.03020
Br741      Br  0.09252007  0.52772363  0.04617733    -0.01570
Br742      Br  0.04428923  0.55828647  0.06510520    -0.01640
Br743      Br  0.13971646  0.61883132  0.00270173    -0.01600
Br744      Br  0.09100618  0.64944665  0.02549766    -0.01580
C745        C  0.08118257  0.58666497  0.18870865    -0.02710
C746        C  0.09696419  0.57154556  0.17132052     0.06970
C747        C  0.10558189  0.58132483  0.14333879    -0.02820
C748        C  0.09896265  0.60540553  0.13377919    -0.02820
C749        C  0.08200746  0.61943619  0.15035086     0.07110
C750        C  0.07573879  0.61095068  0.17932705    -0.03020
Br751      Br  0.06105807  0.63375161  0.20694301    -0.01570
Br752      Br  0.06413074  0.57436210  0.22375194    -0.01640
Br753      Br  0.11568566  0.62029681  0.10009827    -0.01600
Br754      Br  0.12465713  0.56160286  0.11580904    -0.01580
C755        C  0.17209193  0.47522221  0.33254068    -0.02710
C756        C  0.15498906  0.49064791  0.31661147     0.06970
C757        C  0.14367606  0.50976868  0.33255471    -0.02820
C758        C  0.14299204  0.50824906  0.36331220    -0.02820
C759        C  0.16312710  0.49757604  0.37874988     0.07110
C760        C  0.17756831  0.48007817  0.36325366    -0.03020
Br761      Br  0.20388017  0.46261713  0.38401471    -0.01570
Br762      Br  0.18892456  0.44897714  0.31229708    -0.01640
Br763      Br  0.11317849  0.51959813  0.38146745    -0.01600
Br764      Br  0.15133150  0.54320063  0.32270854    -0.01580
C765        C  0.13871068  0.48338164  0.08741934    -0.02710
C766        C  0.15869325  0.48454261  0.06711053     0.06970
C767        C  0.18315778  0.48798363  0.07891602    -0.02820
C768        C  0.18661008  0.49514866  0.10907445    -0.02820
C769        C  0.16595687  0.49752268  0.12800700     0.07110
C770        C  0.14206559  0.49100603  0.11716023    -0.03020
Br771      Br  0.11316310  0.49353013  0.14235359    -0.01570
Br772      Br  0.10754854  0.46806422  0.07613269    -0.01640
Br773      Br  0.21961090  0.50108601  0.12484395    -0.01600
Br774      Br  0.21229282  0.47980681  0.05582547    -0.01580
C775        C  0.11343099  0.60117925  0.27409013    -0.02710
C776        C  0.11233192  0.57534825  0.27397565     0.06970
C777        C  0.09378794  0.56326308  0.29181554    -0.02820
C778        C  0.07837183  0.57663530  0.31092246    -0.02820
C779        C  0.07774897  0.60237549  0.30873410     0.07110
C780        C  0.09588644  0.61468337  0.29071661    -0.03020
Br781      Br  0.09845226  0.65022495  0.28996085    -0.01570
Br782      Br  0.13891426  0.61823875  0.25168666    -0.01640
Br783      Br  0.05834858  0.55898557  0.34003250    -0.01600
Br784      Br  0.08563176  0.52865029  0.28787807    -0.01580
C785        C  0.91144338  0.58104894  0.32842262    -0.02710
C786        C  0.91894863  0.56187314  0.30940795     0.06970
C787        C  0.94439042  0.55931773  0.30251384    -0.02820
C788        C  0.96236091  0.57406255  0.31649396    -0.02820
C789        C  0.95505757  0.59441497  0.33412311     0.07110
C790        C  0.92925989  0.59753180  0.34023151    -0.03020
Br791      Br  0.91774070  0.62270227  0.36714016    -0.01570
Br792      Br  0.87689303  0.58427634  0.33968589    -0.01640
Br793      Br  0.99665154  0.56391789  0.31227617    -0.01600
Br794      Br  0.95503490  0.53670249  0.27188358    -0.01580
C795        C  0.90868012  0.58246304  0.07739122    -0.02710
C796        C  0.91443920  0.56682781  0.05333096     0.06970
C797        C  0.93752550  0.56943596  0.03872691    -0.02820
C798        C  0.95507699  0.58673971  0.04875493    -0.02820
C799        C  0.95018526  0.60103620  0.07441378     0.07110
C800        C  0.92664548  0.59912666  0.08832804    -0.03020
Br801      Br  0.91938580  0.61761697  0.12398701    -0.01570
Br802      Br  0.87673657  0.58027634  0.09672430    -0.01640
Br803      Br  0.98546532  0.59125507  0.02616477    -0.01600
Br804      Br  0.94515665  0.54949354  0.00439788    -0.01580
C805        C  0.87361345  0.52835959  0.42463159    -0.02710
C806        C  0.85320695  0.52758696  0.44444277     0.06970
C807        C  0.82902719  0.52474959  0.43172918    -0.02820
C808        C  0.82614672  0.51753435  0.40142619    -0.02820
C809        C  0.84715727  0.51387825  0.38325525     0.07110
C810        C  0.87079854  0.52067168  0.39476049    -0.03020
Br811      Br  0.89991238  0.52007375  0.36964322    -0.01570
Br812      Br  0.90453962  0.54386486  0.43634075    -0.01640
Br813      Br  0.79342257  0.51505370  0.38402890    -0.01600
Br814      Br  0.79972090  0.53431617  0.45371413    -0.01580
C815        C  0.87424388  0.52114341  0.14528793    -0.02710
C816        C  0.84952436  0.51857089  0.13450253     0.06970
C817        C  0.82989273  0.52639153  0.15280984    -0.02820
C818        C  0.83462330  0.53338381  0.18282031    -0.02820
C819        C  0.85903977  0.53136757  0.19528170     0.07110
C820        C  0.87899195  0.52808347  0.17519549    -0.03020
Br821      Br  0.91265741  0.53650594  0.18669905    -0.01570
Br822      Br  0.90207639  0.51603122  0.11896918    -0.01640
Br823      Br  0.80791862  0.54822517  0.20524184    -0.01600
Br824      Br  0.79674026  0.52876960  0.13616619    -0.01580
C825        C  0.05591190  0.44386147  0.42234015    -0.02710
C826        C  0.06060160  0.41838405  0.42552823     0.06970
C827        C  0.08385251  0.41074164  0.43754428    -0.02820
C828        C  0.09976765  0.42780111  0.45175085    -0.02820
C829        C  0.09420220  0.45344265  0.45085993     0.07110
C830        C  0.07234662  0.46125166  0.43483913    -0.03020
Br831      Br  0.06368865  0.49567354  0.42885838    -0.01570
Br832      Br  0.02823947  0.45534323  0.39753306    -0.01640
Br833      Br  0.12807648  0.41463379  0.47397064    -0.01600
Br834      Br  0.09548266  0.37739937  0.43248459    -0.01580
C835        C  0.94185737  0.43752421  0.46758838    -0.02710
C836        C  0.94249684  0.41185348  0.47074130     0.06970
C837        C  0.92358349  0.39996041  0.48784840    -0.02820
C838        C  0.90273674  0.41338970  0.49803800    -0.02820
C839        C  0.90064212  0.43890215  0.49189301     0.07110
C840        C  0.92114816  0.45097001  0.47751032    -0.03020
Br841      Br  0.92308087  0.48622319  0.47171885    -0.01570
Br842      Br  0.97056985  0.45457291  0.45132992    -0.01640
Br843      Br  0.87640353  0.39609046  0.01881063    -0.01600
Br844      Br  0.92459646  0.36491518  0.49610144    -0.01580
C845        C  0.91269590  0.40944946  0.38097179    -0.02710
C846        C  0.92478081  0.39086971  0.36506180     0.06970
C847        C  0.92709017  0.39424881  0.33390651    -0.02820
C848        C  0.92303709  0.41747710  0.32015803    -0.02820
C849        C  0.91315236  0.43737683  0.33655355     0.07110
C850        C  0.90813147  0.43281012  0.36756970    -0.03020
Br851      Br  0.89728601  0.45876024  0.39352040    -0.01570
Br852      Br  0.89892296  0.40152801  0.41945174    -0.01640
Br853      Br  0.93386637  0.42136823  0.27982172    -0.01600
Br854      Br  0.93431471  0.36593024  0.31003189    -0.01580
C855        C  0.08611138  0.41432593  0.17095121    -0.02710
C856        C  0.06187793  0.41339320  0.18326836     0.06970
C857        C  0.05658204  0.42759337  0.20885174    -0.02820
C858        C  0.07453054  0.44389177  0.22030230    -0.02820
C859        C  0.09796871  0.44619448  0.20648354     0.07110
C860        C  0.10413781  0.43051444  0.18271171    -0.03020
Br861      Br  0.13688823  0.43189928  0.16519866    -0.01570
Br862      Br  0.09456803  0.39486824  0.13663531    -0.01640
Br863      Br  0.06733224  0.46257379  0.25584388    -0.01600
Br864      Br  0.02520168  0.42406131  0.22951770    -0.01580
C865        C  0.91342181  0.40313044  0.20730489    -0.02710
C866        C  0.93619745  0.41470040  0.19898808     0.06970
C867        C  0.93913410  0.43989865  0.20365196    -0.02820
C868        C  0.92065496  0.45304610  0.21888240    -0.02820
C869        C  0.89780082  0.44154613  0.22780323     0.07110
C870        C  0.89392860  0.41685023  0.22029130    -0.03020
Br871      Br  0.86176649  0.40221433  0.22707713    -0.01570
Br872      Br  0.90879467  0.36823746  0.20233664    -0.01640
Br873      Br  0.92990716  0.48559777  0.23132203    -0.01600
Br874      Br  0.97006983  0.45583377  0.19252709    -0.01580
C875        C  0.99552234  0.33490725  0.27838388    -0.02710
C876        C  0.01215426  0.34610773  0.25789443     0.06970
C877        C  0.03293178  0.35949574  0.26981081    -0.02820
C878        C  0.03404002  0.36526416  0.30054154    -0.02820
C879        C  0.01638856  0.35550922  0.32026965     0.07110
C880        C  0.99813105  0.33916023  0.30934761    -0.03020
Br881      Br  0.97630029  0.32236041  0.33668872    -0.01570
Br882      Br  0.97004455  0.31214480  0.26524818    -0.01640
Br883      Br  0.06063331  0.38545659  0.31628256    -0.01600
Br884      Br  0.06181488  0.36837726  0.24621617    -0.01580
C885        C  0.04236630  0.35586321  0.05078930    -0.02710
C886        C  0.02298961  0.34960889  0.07028642     0.06970
C887        C  0.00286177  0.33539796  0.05940047    -0.02820
C888        C  0.00048923  0.33037121  0.02866559    -0.02820
C889        C  0.01835720  0.33963211  0.00828194     0.07110
C890        C  0.04064693  0.34982439  0.02021562    -0.03020
Br891      Br  0.07034334  0.35254965  0.49657263    -0.01570
Br892      Br  0.07175138  0.37175904  0.06625863    -0.01640
Br893      Br  0.97319055  0.30948393  0.01584572    -0.01600
Br894      Br  0.97737938  0.32329567  0.08571963    -0.01580
C895        C  0.90060709  0.42238690  0.09970149    -0.02710
C896        C  0.91435315  0.44016572  0.08252684     0.06970
C897        C  0.93786913  0.43305050  0.07148638    -0.02820
C898        C  0.94738030  0.40933336  0.07769132    -0.02820
C899        C  0.93573073  0.39356077  0.09915816     0.07110
C900        C  0.91133948  0.39936051  0.10776129    -0.03020
Br901      Br  0.89134953  0.37411479  0.12641964    -0.01570
Br902      Br  0.86658293  0.42802364  0.11204715    -0.01640
Br903      Br  0.97527625  0.39821878  0.05397327    -0.01600
Br904      Br  0.95859720  0.45597238  0.04935608    -0.01580
C905        C  0.54266043  0.65902402  0.29564456    -0.02710
C906        C  0.52181108  0.65868397  0.31447783     0.06970
C907        C  0.49892186  0.66777792  0.30288404    -0.02820
C908        C  0.49559078  0.67250120  0.27197095    -0.02820
C909        C  0.51609419  0.67084530  0.25231908     0.07110
C910        C  0.54011472  0.66637361  0.26516467    -0.03020
Br911      Br  0.57005542  0.67246291  0.24239309    -0.01570
Br912      Br  0.57495602  0.65094981  0.31223108    -0.01640
Br913      Br  0.46251110  0.68159333  0.25796111    -0.01600
Br914      Br  0.47233763  0.67648802  0.32919793    -0.01580
C915        C  0.54259526  0.65476255  0.04471752    -0.02710
C916        C  0.52293850  0.66032232  0.06399285     0.06970
C917        C  0.50279037  0.67474572  0.05286740    -0.02820
C918        C  0.50094087  0.68118944  0.02222250    -0.02820
C919        C  0.51936104  0.67327447  0.00199476     0.07110
C920        C  0.54139225  0.66194657  0.01415492    -0.03020
Br921      Br  0.57132523  0.65767446  0.49072924    -0.01570
Br922      Br  0.57173645  0.63821741  0.06075506    -0.01640
Br923      Br  0.47359177  0.70227182  0.00921741    -0.01600
Br924      Br  0.47690405  0.68584125  0.07898793    -0.01580
C925        C  0.25926281  0.52312899  0.28417308    -0.02710
C926        C  0.27794509  0.53449277  0.26691051     0.06970
C927        C  0.27048749  0.54911003  0.24176827    -0.02820
C928        C  0.24654594  0.54582309  0.22902828    -0.02820
C929        C  0.22874500  0.53161854  0.24444334     0.07110
C930        C  0.23462209  0.52307946  0.27360096    -0.03020
Br931      Br  0.20891567  0.51536495  0.30113629    -0.01570
Br932      Br  0.26665788  0.51009279  0.32400970    -0.01640
Br933      Br  0.23811581  0.56089336  0.19086125    -0.01600
Br934      Br  0.28983347  0.57701127  0.22876685    -0.01580
C935        C  0.41340384  0.61320388  0.35503299    -0.02710
C936        C  0.43848440  0.60981985  0.36325187     0.06970
C937        C  0.45008880  0.58658390  0.35725394    -0.02820
C938        C  0.43680747  0.56761359  0.34315396    -0.02820
C939        C  0.41231541  0.57157593  0.33355527     0.07110
C940        C  0.40047259  0.59439967  0.33978474    -0.03020
Br941      Br  0.36692442  0.60100900  0.32592293    -0.01570
Br942      Br  0.39734544  0.64423335  0.36278984    -0.01640
Br943      Br  0.45169571  0.53544973  0.33801408    -0.01600
Br944      Br  0.48442669  0.57926298  0.36748949    -0.01580
C945        C  0.40017704  0.60136430  0.22818843    -0.02710
C946        C  0.40178132  0.57572111  0.23212577     0.06970
C947        C  0.42437881  0.56344576  0.22414140    -0.02820
C948        C  0.44441057  0.57659595  0.21185487    -0.02820
C949        C  0.44237744  0.60194181  0.20703011     0.07110
C950        C  0.42039865  0.61449810  0.21585731    -0.03020
Br951      Br  0.41706194  0.64967466  0.21032480    -0.01570
Br952      Br  0.36970813  0.61832976  0.23786582    -0.01640
Br953      Br  0.47563870  0.56018361  0.20333662    -0.01600
Br954      Br  0.42977961  0.52859634  0.23037631    -0.01580
C955        C  0.25238972  0.52129336  0.46960060    -0.02710
C956        C  0.23255704  0.52578946  0.48934754     0.06970
C957        C  0.23793639  0.53377276  0.01881351    -0.02820
C958        C  0.26276136  0.53377485  0.02955027    -0.02820
C959        C  0.28250689  0.52788805  0.01026317     0.07110
C960        C  0.27722684  0.52325897  0.47981897    -0.03020
Br961      Br  0.30397078  0.52095041  0.45175538    -0.01570
Br962      Br  0.24560877  0.51370267  0.42809360    -0.01640
Br963      Br  0.26973746  0.54169357  0.07074552    -0.01600
Br964      Br  0.21146695  0.54450655  0.04477320    -0.01580
C965        C  0.43780788  0.57601824  0.07924040    -0.02710
C966        C  0.41339865  0.57010064  0.08809100     0.06970
C967        C  0.40051204  0.58734464  0.10637301    -0.02820
C968        C  0.41203410  0.60969826  0.11516940    -0.02820
C969        C  0.43614227  0.61582053  0.10509436     0.07110
C970        C  0.44770601  0.59949301  0.08451189    -0.03020
Br971      Br  0.47582655  0.60905366  0.05984548    -0.01570
Br972      Br  0.45939323  0.55126196  0.06246837    -0.01640
Br973      Br  0.39334679  0.63320646  0.13799800    -0.01600
Br974      Br  0.36701983  0.58126470  0.12023167    -0.01580
C975        C  0.35406780  0.52141308  0.39536332    -0.02710
C976        C  0.33988942  0.50435870  0.37920345     0.06970
C977        C  0.33397957  0.48173183  0.39360273    -0.02820
C978        C  0.34265707  0.47656823  0.42328716    -0.02820
C979        C  0.35968386  0.49264468  0.43753860     0.07110
C980        C  0.36688644  0.51400449  0.42145243    -0.03020
Br981      Br  0.39720340  0.53102481  0.42974477    -0.01570
Br982      Br  0.35345412  0.55593079  0.38530407    -0.01640
Br983      Br  0.33239756  0.44684522  0.44369667    -0.01600
Br984      Br  0.31181982  0.45912757  0.37387095    -0.01580
C985        C  0.35933653  0.47147393  0.17149086    -0.02710
C986        C  0.35310418  0.49082729  0.19064414     0.06970
C987        C  0.33986743  0.51108941  0.17841025    -0.02820
C988        C  0.33373975  0.51282019  0.14766392    -0.02820
C989        C  0.34190384  0.49459600  0.12759488     0.07110
C990        C  0.35313240  0.47285891  0.14039003    -0.03020
Br991      Br  0.35815550  0.44354372  0.11700528    -0.01570
Br992      Br  0.37595597  0.44288495  0.18827044    -0.01640
Br993      Br  0.31232102  0.53970840  0.13463945    -0.01600
Br994      Br  0.33107496  0.53782898  0.20342474    -0.01580
C995        C  0.40463107  0.60259219  0.48699567    -0.02710
C996        C  0.40589167  0.57691567  0.49099344     0.06970
C997        C  0.42878290  0.56465852  0.48369212    -0.02820
C998        C  0.44872378  0.57761385  0.47064100    -0.02820
C999        C  0.44664141  0.60283204  0.46470338     0.07110
C1000       C  0.42474987  0.61551234  0.47381510    -0.03020
Br1001     Br  0.42103781  0.65050298  0.46675107    -0.01570
Br1002     Br  0.37474177  0.61993820  0.49804510    -0.01640
Br1003     Br  0.47972106  0.56092693  0.46179732    -0.01600
Br1004     Br  0.43495189  0.53004655  0.49136037    -0.01580
C1005       C  0.73642170  0.48483569  0.02593371    -0.02710
C1006       C  0.73333088  0.48341770  0.49457868     0.06970
C1007       C  0.75442708  0.47964053  0.47659615    -0.02820
C1008       C  0.77845056  0.47894718  0.48984637    -0.02820
C1009       C  0.78156665  0.48444251  0.02060507     0.07110
C1010       C  0.76039332  0.48632928  0.03881825    -0.03020
Br1011     Br  0.76423870  0.48965491  0.08163850    -0.01570
Br1012     Br  0.70787344  0.48381617  0.05134555    -0.01640
Br1013     Br  0.80689394  0.47012931  0.46600839    -0.01600
Br1014     Br  0.75024134  0.47517476  0.43401260    -0.01580
C1015       C  0.60881999  0.58255032  0.42999313    -0.02710
C1016       C  0.60309902  0.56810081  0.45558303     0.06970
C1017       C  0.58139434  0.57316427  0.47187978    -0.02820
C1018       C  0.56442882  0.59105825  0.46128186    -0.02820
C1019       C  0.56866557  0.60350058  0.43364966     0.07110
C1020       C  0.59136292  0.59976315  0.41857221    -0.03020
Br1021     Br  0.59785654  0.61633050  0.38087760    -0.01570
Br1022     Br  0.64014788  0.57846636  0.40986410    -0.01640
Br1023     Br  0.53559908  0.59867189  0.48526151    -0.01600
Br1024     Br  0.57523546  0.55587583  0.00925897    -0.01580
C1025       C  0.73855768  0.48256540  0.27528334    -0.02710
C1026       C  0.73434235  0.48679925  0.24438030     0.06970
C1027       C  0.75460758  0.48774600  0.22452306    -0.02820
C1028       C  0.77904639  0.48627270  0.23593524    -0.02820
C1029       C  0.78318836  0.48636373  0.26718026     0.07110
C1030       C  0.76301092  0.48303087  0.28676328    -0.03020
Br1031     Br  0.76903792  0.47705764  0.32881325    -0.01570
Br1032     Br  0.71099624  0.47601428  0.30179466    -0.01640
Br1033     Br  0.80661842  0.48213740  0.20903873    -0.01600
Br1034     Br  0.74883277  0.49006358  0.18174617    -0.01580
C1035       C  0.58713945  0.57792705  0.21827778    -0.02710
C1036       C  0.60048578  0.56337946  0.19801627     0.06970
C1037       C  0.59550948  0.56546971  0.16694974    -0.02820
C1038       C  0.57771359  0.58257227  0.15616831    -0.02820
C1039       C  0.56418662  0.59692395  0.17650092     0.07110
C1040       C  0.56832506  0.59388250  0.20760033    -0.03020
Br1041     Br  0.54653720  0.60950746  0.23567494    -0.01570
Br1042     Br  0.59379646  0.57515581  0.26080529    -0.01640
Br1043     Br  0.57044185  0.58499148  0.11378750    -0.01600
Br1044     Br  0.61250212  0.54434157  0.13929702    -0.01580
C1045       C  0.63817927  0.52559298  0.33584334    -0.02710
C1046       C  0.65812512  0.52864053  0.31543041     0.06970
C1047       C  0.68274926  0.53009215  0.32772787    -0.02820
C1048       C  0.68749761  0.52369361  0.35819062    -0.02820
C1049       C  0.66776544  0.51792585  0.37751213     0.07110
C1050       C  0.64305840  0.52053407  0.36653678    -0.03020
Br1051     Br  0.61524079  0.51697828  0.39332229    -0.01570
Br1052     Br  0.60371478  0.52863014  0.32303326    -0.01640
Br1053     Br  0.72103200  0.52377258  0.37406974    -0.01600
Br1054     Br  0.71020772  0.54302967  0.30449144    -0.01580
C1055       C  0.67701942  0.53770990  0.11322325    -0.02710
C1056       C  0.67551121  0.51411460  0.12736218     0.06970
C1057       C  0.66683931  0.49458718  0.11006435    -0.02820
C1058       C  0.65396201  0.49935769  0.08334579    -0.02820
C1059       C  0.65762510  0.52161718  0.06734540     0.07110
C1060       C  0.66990335  0.54082389  0.08252657    -0.03020
Br1061     Br  0.67425487  0.57199766  0.06223156    -0.01570
Br1062     Br  0.68982259  0.56541346  0.13500312    -0.01640
Br1063     Br  0.62622395  0.47832598  0.07650547    -0.01600
Br1064     Br  0.67405362  0.46090372  0.12029803    -0.01580
C1065       C  0.45501905  0.43511966  0.30673120    -0.02710
C1066       C  0.44974475  0.41977622  0.33187261     0.06970
C1067       C  0.42534261  0.41980592  0.34377895    -0.02820
C1068       C  0.40672246  0.43530301  0.33111627    -0.02820
C1069       C  0.41207857  0.45037792  0.30600263     0.07110
C1070       C  0.43600596  0.44935922  0.29323233    -0.03020
Br1071     Br  0.44244632  0.46651672  0.25584136    -0.01570
Br1072     Br  0.48802813  0.43646251  0.28933409    -0.01640
Br1073     Br  0.37434877  0.43686303  0.34928978    -0.01600
Br1074     Br  0.41771829  0.40047073  0.37917827    -0.01580
C1075       C  0.58334252  0.40940795  0.27465291    -0.02710
C1076       C  0.57318289  0.41811302  0.30215076     0.06970
C1077       C  0.58697786  0.43612160  0.31791597    -0.02820
C1078       C  0.61057881  0.44380486  0.30756363    -0.02820
C1079       C  0.61997030  0.43603301  0.27961086     0.07110
C1080       C  0.60711385  0.41711824  0.26485589    -0.03020
Br1081     Br  0.62325303  0.39915938  0.23365899    -0.01570
Br1082     Br  0.56436098  0.38894262  0.24741873    -0.01640
Br1083     Br  0.63123943  0.46370941  0.33314092    -0.01600
Br1084     Br  0.57309072  0.45300470  0.35184343    -0.01580
C1085       C  0.60394726  0.40293773  0.39157594    -0.02710
C1086       C  0.58027596  0.39589594  0.40216861     0.06970
C1087       C  0.56989879  0.40995594  0.42580410    -0.02820
C1088       C  0.57898286  0.43354080  0.43216006    -0.02820
C1089       C  0.60268260  0.44087955  0.42198962     0.07110
C1090       C  0.61598883  0.42400847  0.40344625    -0.03020
Br1091     Br  0.65125753  0.42746537  0.39573677    -0.01570
Br1092     Br  0.62070010  0.38323628  0.36212897    -0.01640
Br1093     Br  0.55713220  0.45580151  0.45289959    -0.01600
Br1094     Br  0.54458081  0.39688159  0.45236452    -0.01580
C1095       C  0.42544757  0.45109994  0.08417599    -0.02710
C1096       C  0.41602562  0.44957248  0.05456394     0.06970
C1097       C  0.42557711  0.43182124  0.03502055    -0.02820
C1098       C  0.44434140  0.41559640  0.04522081    -0.02820
C1099       C  0.45193459  0.41546698  0.07555416     0.07110
C1100       C  0.44312257  0.43388830  0.09470952    -0.03020
Br1101     Br  0.45730953  0.43736247  0.13426825    -0.01570
Br1102     Br  0.41530426  0.47763554  0.10993315    -0.01640
Br1103     Br  0.46316465  0.39745695  0.01654243    -0.01600
Br1104     Br  0.41508936  0.43158051  0.49342190    -0.01580
C1105       C  0.57019528  0.43709564  0.04104298    -0.02710
C1106       C  0.57269529  0.41194691  0.04704832     0.06970
C1107       C  0.59435775  0.39930950  0.03728783    -0.02820
C1108       C  0.61366671  0.41208730  0.02241562    -0.02820
C1109       C  0.61177254  0.43760384  0.01744408     0.07110
C1110       C  0.58933407  0.44993303  0.02627032    -0.03020
Br1111     Br  0.58299279  0.48454953  0.51866222    -0.01570
Br1112     Br  0.53973053  0.45376519  0.05218025    -0.01640
Br1113     Br  0.64330714  0.39480301  0.01035824    -0.01600
Br1114     Br  0.59877192  0.36459470  0.04574686    -0.01580
C1115       C  0.61597444  0.42038668  0.16236330    -0.02710
C1116       C  0.60297446  0.44109556  0.17385789     0.06970
C1117       C  0.57686372  0.44113068  0.17296232    -0.02820
C1118       C  0.56376186  0.42065984  0.16187272    -0.02820
C1119       C  0.57669623  0.39993153  0.14975565     0.07110
C1120       C  0.60291801  0.40038976  0.14968374    -0.03020
Br1121     Br  0.62121828  0.37285477  0.13387989    -0.01570
Br1122     Br  0.65165910  0.41717044  0.16710156    -0.01640
Br1123     Br  0.52781466  0.42291935  0.16347348    -0.01600
Br1124     Br  0.55879379  0.47004935  0.18580389    -0.01580
C1125       C  0.47693038  0.34174719  0.49044428    -0.02710
C1126       C  0.50114795  0.33697032  0.00236856     0.06970
C1127       C  0.52072446  0.33332508  0.48189593    -0.02820
C1128       C  0.51667332  0.33822109  0.45110157    -0.02820
C1129       C  0.49439498  0.34983568  0.44108967     0.07110
C1130       C  0.47398453  0.35009344  0.46050803    -0.03020
Br1131     Br  0.44187161  0.36078343  0.44566785    -0.01570
Br1132     Br  0.44747666  0.33468786  0.01375424    -0.01640
Br1133     Br  0.54120704  0.32713252  0.42312667    -0.01600
Br1134     Br  0.55303280  0.32120018  0.49484205    -0.01580
C1135       C  0.47512414  0.36670260  0.23981525    -0.02710
C1136       C  0.49225629  0.34943467  0.25270315     0.06970
C1137       C  0.50261128  0.33155202  0.23383603    -0.02820
C1138       C  0.49865799  0.33311416  0.20255178    -0.02820
C1139       C  0.48620693  0.35370001  0.18943582     0.07110
C1140       C  0.47312724  0.36952075  0.20838407    -0.03020
Br1141     Br  0.45031537  0.39341682  0.19131700    -0.01570
Br1142     Br  0.45241211  0.38543183  0.26386326    -0.01640
Br1143     Br  0.50912141  0.30585837  0.17877754    -0.01600
Br1144     Br  0.52033525  0.30343807  0.25069255    -0.01580
C1145       C  0.83719274  0.98418007  0.36080641    -0.02710
C1146       C  0.85279356  0.00012229  0.37713616     0.06970
C1147       C  0.87572752  0.00670205  0.36375435    -0.02820
C1148       C  0.88125366  0.00112532  0.33364890    -0.02820
C1149       C  0.86379678  0.98831205  0.31596245     0.07110
C1150       C  0.84306436  0.97775290  0.33085287    -0.03020
Br1151     Br  0.82618815  0.95045017  0.31286167    -0.01570
Br1152     Br  0.80866593  0.96978253  0.38010186    -0.01640
Br1153     Br  0.91369209  0.01022038  0.31798278    -0.01600
Br1154     Br  0.90121419  0.02165745  0.38670472    -0.01580
C1155       C  0.85667564  0.01476741  0.08364256    -0.02710
C1156       C  0.85675601  0.99215043  0.06841835     0.06970
C1157       C  0.84679127  0.97148610  0.08371855    -0.02820
C1158       C  0.83945520  0.97350105  0.11428844    -0.02820
C1159       C  0.83794473  0.99702970  0.12782913     0.07110
C1160       C  0.84269187  0.01760158  0.10952815    -0.03020
Br1161     Br  0.83128843  0.05011820  0.11887858    -0.01570
Br1162     Br  0.88446503  0.03654084  0.08242717    -0.01640
Br1163     Br  0.82999609  0.94440301  0.13653559    -0.01600
Br1164     Br  0.84567316  0.94026112  0.06387861    -0.01580
C1165       C  0.96819382  0.24806166  0.36684044    -0.02710
C1166       C  0.99063379  0.23450557  0.36537056     0.06970
C1167       C  0.01226792  0.24395356  0.37950732    -0.02820
C1168       C  0.01118196  0.26588107  0.39593320    -0.02820
C1169       C  0.98900929  0.28037916  0.39608664     0.07110
C1170       C  0.96718174  0.27050533  0.38249601    -0.03020
Br1171     Br  0.93496797  0.28619252  0.38638565    -0.01570
Br1172     Br  0.93887337  0.23685149  0.34552698    -0.01640
Br1173     Br  0.04023778  0.27367179  0.42041617    -0.01600
Br1174     Br  0.04394093  0.22670256  0.37806500    -0.01580
C1175       C  0.94257374  0.11489155  0.43471371    -0.02710
C1176       C  0.93244490  0.12727754  0.40917769     0.06970
C1177       C  0.90852114  0.12022424  0.39957515    -0.02820
C1178       C  0.89710264  0.09911531  0.41255266    -0.02820
C1179       C  0.91113021  0.08280000  0.43199283     0.07110
C1180       C  0.93420860  0.09135439  0.44296922    -0.03020
Br1181     Br  0.95645420  0.07084528  0.46667278    -0.01570
Br1182     Br  0.96714375  0.13049840  0.45976954    -0.01640
Br1183     Br  0.86219058  0.09402769  0.40342242    -0.01600
Br1184     Br  0.89126199  0.13934632  0.36904744    -0.01580
C1185       C  0.89805048  0.07795687  0.30395951    -0.02710
C1186       C  0.89272038  0.08209215  0.27332124     0.06970
C1187       C  0.90789908  0.09887362  0.25766568    -0.02820
C1188       C  0.93040532  0.10754304  0.27040691    -0.02820
C1189       C  0.93697132  0.10166479  0.30073175     0.07110
C1190       C  0.92055257  0.08622411  0.31710272    -0.03020
Br1191     Br  0.92928560  0.07408645  0.35647350    -0.01570
Br1192     Br  0.87241632  0.06343759  0.32830131    -0.01640
Br1193     Br  0.95310012  0.12520291  0.24427707    -0.01600
Br1194     Br  0.89606481  0.11320240  0.22084288    -0.01580
C1195       C  0.96702719  0.26690995  0.14228193    -0.02710
C1196       C  0.98920929  0.28085402  0.14341755     0.06970
C1197       C  0.01055003  0.27195441  0.12858390    -0.02820
C1198       C  0.00918815  0.25065130  0.11114038    -0.02820
C1199       C  0.98784098  0.23522206  0.11233105     0.07110
C1200       C  0.96626008  0.24427230  0.12693354    -0.03020
Br1201     Br  0.93470585  0.22720953  0.12466778    -0.01570
Br1202     Br  0.93804309  0.27769287  0.16405108    -0.01640
Br1203     Br  0.03615641  0.24523684  0.08310456    -0.01600
Br1204     Br  0.04259281  0.28804216  0.13195024    -0.01580
C1205       C  0.91003074  0.11370295  0.14177763    -0.02710
C1206       C  0.93628513  0.11372399  0.14279326     0.06970
C1207       C  0.94867994  0.09176626  0.15309550    -0.02820
C1208       C  0.93506758  0.07091742  0.16228610    -0.02820
C1209       C  0.90908244  0.07187154  0.16443223     0.07110
C1210       C  0.89647356  0.09321293  0.15305844    -0.03020
Br1211     Br  0.86081417  0.09661293  0.15652943    -0.01570
Br1212     Br  0.89247508  0.14272335  0.12768154    -0.01640
Br1213     Br  0.95208612  0.04010444  0.17010400    -0.01600
Br1214     Br  0.98454209  0.08852751  0.15553209    -0.01580
C1215       C  0.02609084  0.14534092  0.49187473    -0.02710
C1216       C  0.01565614  0.16754622  0.00238710     0.06970
C1217       C  0.00802266  0.18568215  0.48166652    -0.02820
C1218       C  0.00914610  0.18082736  0.45088651    -0.02820
C1219       C  0.02227646  0.16000220  0.44022234     0.07110
C1220       C  0.03154706  0.14263969  0.46129359    -0.03020
Br1221     Br  0.05100208  0.11466012  0.44885985    -0.01570
Br1222     Br  0.02826966  0.11662288  0.01762705    -0.01640
Br1223     Br  0.98731717  0.19976924  0.42543118    -0.01600
Br1224     Br  0.99532019  0.21698464  0.49511122    -0.01580
C1225       C  0.03775877  0.15186707  0.21004418    -0.02710
C1226       C  0.02077276  0.16254028  0.18978707     0.06970
C1227       C  0.00158295  0.17783929  0.20043667    -0.02820
C1228       C  0.99901966  0.18218764  0.23127579    -0.02820
C1229       C  0.01485392  0.17002607  0.25220822     0.07110
C1230       C  0.03524254  0.15576635  0.24103428    -0.03020
Br1231     Br  0.06108403  0.14149264  0.26638379    -0.01570
Br1232     Br  0.06477523  0.13195826  0.19488626    -0.01640
Br1233     Br  0.97451749  0.20614541  0.24372415    -0.01600
Br1234     Br  0.97698567  0.19131015  0.17332913    -0.01580
C1235       C  0.94355993  0.07781090  0.04484612    -0.02710
C1236       C  0.94221798  0.10322174  0.04790655     0.06970
C1237       C  0.92036552  0.11607469  0.03833070    -0.02820
C1238       C  0.89976663  0.10323572  0.02638087    -0.02820
C1239       C  0.90067288  0.07750909  0.02370731     0.07110
C1240       C  0.92323195  0.06489307  0.03286096    -0.03020
Br1241     Br  0.92914869  0.02999088  0.52878715    -0.01570
Br1242     Br  0.97446093  0.06092522  0.05543923    -0.01640
Br1243     Br  0.86970375  0.12084878  0.01539351    -0.01600
Br1244     Br  0.91755840  0.15130475  0.04274682    -0.01580
C1245       C  0.04096614  0.77383675  0.37337773    -0.02710
C1246       C  0.02114789  0.78150425  0.39225975     0.06970
C1247       C  0.00064896  0.76516263  0.39629953    -0.02820
C1248       C  0.99906753  0.74320752  0.38000154    -0.02820
C1249       C  0.01953958  0.73488862  0.36319369     0.07110
C1250       C  0.04038535  0.75042441  0.35981045    -0.03020
Br1251     Br  0.06753890  0.74033660  0.33442894    -0.01570
Br1252     Br  0.06942657  0.79461798  0.36521633    -0.01640
Br1253     Br  0.96812910  0.72500873  0.38107701    -0.01600
Br1254     Br  0.97491942  0.77054857  0.42596181    -0.01580
C1255       C  0.93625677  0.95880347  0.43168166    -0.02710
C1256       C  0.91994154  0.95411205  0.45591272     0.06970
C1257       C  0.91871092  0.92983779  0.46793058    -0.02820
C1258       C  0.93294654  0.91074155  0.45522680    -0.02820
C1259       C  0.94757855  0.91549763  0.42963320     0.07110
C1260       C  0.94783595  0.93929131  0.41702112    -0.03020
Br1261     Br  0.96345610  0.94501443  0.37861355    -0.01570
Br1262     Br  0.94671854  0.99147727  0.42060442    -0.01640
Br1263     Br  0.93322756  0.87853810  0.47387278    -0.01600
Br1264     Br  0.90063895  0.92323038  0.00451242    -0.01580
C1265       C  0.03377613  0.77597191  0.11116328    -0.02710
C1266       C  0.03125819  0.77944536  0.14227515     0.06970
C1267       C  0.03064785  0.75890776  0.16190413    -0.02820
C1268       C  0.03121570  0.73502198  0.15019004    -0.02820
C1269       C  0.02981939  0.73170466  0.11892544     0.07110
C1270       C  0.03177879  0.75217943  0.09940776    -0.03020
Br1271     Br  0.03200776  0.74764040  0.05667915    -0.01570
Br1272     Br  0.04001514  0.80366403  0.08471322    -0.01640
Br1273     Br  0.03463189  0.70693952  0.17677520    -0.01600
Br1274     Br  0.02968361  0.76350023  0.20477374    -0.01580
C1275       C  0.91007006  0.92418102  0.19885568    -0.02710
C1276       C  0.91749365  0.94910695  0.20258343     0.06970
C1277       C  0.94274324  0.95507795  0.19733137    -0.02820
C1278       C  0.95869183  0.93808376  0.18401430    -0.02820
C1279       C  0.95247558  0.91278737  0.18346429     0.07110
C1280       C  0.92786848  0.90593185  0.19129991    -0.03020
Br1281     Br  0.91806981  0.87174518  0.19222020    -0.01570
Br1282     Br  0.87577385  0.91424330  0.20375408    -0.01640
Br1283     Br  0.98731632  0.95116049  0.16296158    -0.01600
Br1284     Br  0.95777511  0.98483483  0.21233841    -0.01580
C1285       C  0.98360551  0.82702578  0.27435652    -0.02710
C1286       C  0.00544491  0.83605669  0.26035284     0.06970
C1287       C  0.02039598  0.85205595  0.27699725    -0.02820
C1288       C  0.01093223  0.86371718  0.30222376    -0.02820
C1289       C  0.99098805  0.85330447  0.31840479     0.07110
C1290       C  0.97768963  0.83395882  0.30430336    -0.03020
Br1291     Br  0.95010434  0.81858310  0.32452200    -0.01570
Br1292     Br  0.96300857  0.80391857  0.25323020    -0.01640
Br1293     Br  0.02200699  0.89671421  0.30782609    -0.01600
Br1294     Br  0.05542539  0.85446010  0.27047894    -0.01580
C1295       C  0.98573052  0.83255976  0.05875889    -0.02710
C1296       C  0.98875039  0.85640855  0.07148002     0.06970
C1297       C  0.99302745  0.87647880  0.05134732    -0.02820
C1298       C  0.99643809  0.87233999  0.02034327    -0.02820
C1299       C  0.99702457  0.84821691  0.00885589     0.07110
C1300       C  0.99106259  0.82845915  0.02809542    -0.03020
Br1301     Br  0.98923944  0.79577314  0.01180796    -0.01570
Br1302     Br  0.97224773  0.80527579  0.08177243    -0.01640
Br1303     Br  0.00022736  0.90023911  0.49351332    -0.01600
Br1304     Br  0.99418126  0.91019112  0.06489987    -0.01580
C1305       C  0.08668933  0.10466053  0.32999351    -0.02710
C1306       C  0.06085763  0.10048243  0.32462000     0.06970
C1307       C  0.05394471  0.08169297  0.30427260    -0.02820
C1308       C  0.07199972  0.06526282  0.29368433    -0.02820
C1309       C  0.09720972  0.06791534  0.30192081     0.07110
C1310       C  0.10466973  0.08920499  0.31704284    -0.03020
Br1311     Br  0.13926992  0.09826452  0.31805910    -0.01570
Br1312     Br  0.09852857  0.13044581  0.35597959    -0.01640
Br1313     Br  0.06254936  0.04035656  0.26529351    -0.01600
Br1314     Br  0.02025756  0.07868333  0.28864784    -0.01580
C1315       C  0.07823088  0.94727642  0.35789425    -0.02710
C1316       C  0.10384312  0.94539500  0.35320962     0.06970
C1317       C  0.11593413  0.92244675  0.35882125    -0.02820
C1318       C  0.10206398  0.90140707  0.36751570    -0.02820
C1319       C  0.07594428  0.90270456  0.36985838     0.07110
C1320       C  0.06415826  0.92623518  0.36505607    -0.03020
Br1321     Br  0.02874092  0.93193385  0.36752386    -0.01570
Br1322     Br  0.06256209  0.97948946  0.35501765    -0.01640
Br1323     Br  0.11867880  0.87019256  0.37366632    -0.01600
Br1324     Br  0.15131793  0.91878355  0.35280547    -0.01580
C1325       C  0.08389335  0.94412330  0.24745345    -0.02710
C1326       C  0.10773413  0.93396709  0.25514036     0.06970
C1327       C  0.11285687  0.90947096  0.24781630    -0.02820
C1328       C  0.09539173  0.89608535  0.23067151    -0.02820
C1329       C  0.07289620  0.90752552  0.22027209     0.07110
C1330       C  0.06684588  0.93101990  0.22998667    -0.03020
Br1331     Br  0.03440853  0.94479882  0.22062044    -0.01570
Br1332     Br  0.07330368  0.97623358  0.26025006    -0.01640
Br1333     Br  0.10379840  0.86274298  0.21955584    -0.01600
Br1334     Br  0.14432320  0.89488553  0.25940547    -0.01580
C1335       C  0.06873304  0.07803083  0.09709157    -0.02710
C1336       C  0.06701020  0.10173565  0.08399646     0.06970
C1337       C  0.08364937  0.10840968  0.06086636    -0.02820
C1338       C  0.09914124  0.09043149  0.04797241    -0.02820
C1339       C  0.09941205  0.06608546  0.05960813     0.07110
C1340       C  0.08522070  0.06047912  0.08543063    -0.03020
Br1341     Br  0.08910296  0.02913218  0.10605170    -0.01570
Br1342     Br  0.04926986  0.06992492  0.13211513    -0.01640
Br1343     Br  0.11831536  0.09902210  0.01291185    -0.01600
Br1344     Br  0.08496305  0.14192517  0.04608102    -0.01580
C1345       C  0.07410854  0.90273201  0.07892501    -0.02710
C1346       C  0.08084593  0.89617114  0.10886627     0.06970
C1347       C  0.09521646  0.91329129  0.12496102    -0.02820
C1348       C  0.09935035  0.93723732  0.11346964    -0.02820
C1349       C  0.09347090  0.94357660  0.08338212     0.07110
C1350       C  0.07924371  0.92648832  0.06693544    -0.03020
Br1351     Br  0.06177600  0.93706797  0.03146041    -0.01570
Br1352     Br  0.05887392  0.87838318  0.05356665    -0.01640
Br1353     Br  0.10787018  0.96285200  0.14109718    -0.01600
Br1354     Br  0.11254026  0.90362417  0.16077392    -0.01580
C1355       C  0.17478977  0.00215907  0.43510393    -0.02710
C1356       C  0.16351199  0.02389632  0.44577932     0.06970
C1357       C  0.16141414  0.04420351  0.42614255    -0.02820
C1358       C  0.16904201  0.04221873  0.39596169    -0.02820
C1359       C  0.17556897  0.01903079  0.38385598     0.07110
C1360       C  0.17974183  0.99921972  0.40432479    -0.03020
Br1361     Br  0.19283843  0.96773934  0.39169388    -0.01570
Br1362     Br  0.18467921  0.97615506  0.46219625    -0.01640
Br1363     Br  0.17462575  0.07203804  0.37342724    -0.01600
Br1364     Br  0.14939101  0.07511213  0.44110509    -0.01580
C1365       C  0.16304670  0.99102702  0.15308371    -0.02710
C1366       C  0.16353627  0.01224438  0.13444499     0.06970
C1367       C  0.15938047  0.03558512  0.14776371    -0.02820
C1368       C  0.15255277  0.03725243  0.17828551    -0.02820
C1369       C  0.14985334  0.01591772  0.19617528     0.07110
C1370       C  0.15547341  0.99276018  0.18320050    -0.03020
Br1371     Br  0.15691868  0.96273398  0.20631250    -0.01570
Br1372     Br  0.17428918  0.95907541  0.13886549    -0.01640
Br1373     Br  0.14812112  0.06905256  0.19640070    -0.01600
Br1374     Br  0.16564412  0.06589877  0.12585591    -0.01580
C1375       C  0.11338327  0.91439746  0.48283299    -0.02710
C1376       C  0.11263913  0.94026738  0.48220094     0.06970
C1377       C  0.09157102  0.95235432  0.46849600    -0.02820
C1378       C  0.07094768  0.93869114  0.45854368    -0.02820
C1379       C  0.07139834  0.91287896  0.46020290     0.07110
C1380       C  0.09315949  0.90073643  0.47137704    -0.03020
Br1381     Br  0.09658894  0.86536004  0.46957348    -0.01570
Br1382     Br  0.14282901  0.89759707  0.49768877    -0.01640
Br1383     Br  0.04068577  0.95573005  0.44604859    -0.01600
Br1384     Br  0.08854832  0.98785938  0.46448183    -0.01580
C1385       C  0.74417286  0.04575219  0.25940574    -0.02710
C1386       C  0.73369152  0.02483052  0.27409370     0.06970
C1387       C  0.74853070  0.00327839  0.27720824    -0.02820
C1388       C  0.77080880  0.00109770  0.26125730    -0.02820
C1389       C  0.78127402  0.02177869  0.24658383     0.07110
C1390       C  0.76780774  0.04416320  0.24582510    -0.03020
Br1391     Br  0.78019171  0.07213211  0.22311841    -0.01570
Br1392     Br  0.72754845  0.07742579  0.25869761    -0.01640
Br1393     Br  0.78538555  0.96870102  0.25833254    -0.01600
Br1394     Br  0.74068117  0.97694713  0.30549879    -0.01580
C1395       C  0.73878433  0.01023129  0.48683272    -0.02710
C1396       C  0.73208928  0.02340174  0.01281036     0.06970
C1397       C  0.75054241  0.03744004  0.02740982    -0.02820
C1398       C  0.77534353  0.03767704  0.01672945    -0.02820
C1399       C  0.78152926  0.02529356  0.48993502     0.07110
C1400       C  0.76259911  0.01278691  0.47432754    -0.03020
Br1401     Br  0.76852375  0.00028795  0.43452975    -0.01570
Br1402     Br  0.71696635  0.98669289  0.46874385    -0.01640
Br1403     Br  0.80086851  0.05350738  0.04032269    -0.01600
Br1404     Br  0.74229209  0.05452802  0.06371013    -0.01580
C1405       C  0.65119210  0.97476010  0.42435870    -0.02710
C1406       C  0.65401097  0.99444529  0.44402960     0.06970
C1407       C  0.66456294  0.01667084  0.43310106    -0.02820
C1408       C  0.66759970  0.02078989  0.40218181    -0.02820
C1409       C  0.66445340  0.00113926  0.38199721     0.07110
C1410       C  0.65814743  0.97752469  0.39404003    -0.03020
Br1411     Br  0.66197233  0.94796596  0.37111981    -0.01570
Br1412     Br  0.63976246  0.94341001  0.43975772    -0.01640
Br1413     Br  0.67578613  0.05394170  0.38898877    -0.01600
Br1414     Br  0.67822372  0.04092465  0.45957929    -0.01580
C1415       C  0.67745843  0.01101233  0.18228428    -0.02710
C1416       C  0.66091201  0.99305429  0.19369543     0.06970
C1417       C  0.65096020  0.97547033  0.17433256    -0.02820
C1418       C  0.65666946  0.97627281  0.14347183    -0.02820
C1419       C  0.67131620  0.99598600  0.13120350     0.07110
C1420       C  0.68274320  0.01248061  0.15139705    -0.03020
Br1421     Br  0.70670338  0.03673521  0.13789698    -0.01570
Br1422     Br  0.69171345  0.03522315  0.20841147    -0.01640
Br1423     Br  0.64461576  0.94905062  0.11977777    -0.01600
Br1424     Br  0.62976635  0.94987390  0.19059729    -0.01580
C1425       C  0.54209501  0.26860718  0.36099832    -0.02710
C1426       C  0.52116210  0.28410486  0.36424790     0.06970
C1427       C  0.50055162  0.27518278  0.38076432    -0.02820
C1428       C  0.50185277  0.25244487  0.39613655    -0.02820
C1429       C  0.52172642  0.23575984  0.39078894     0.07110
C1430       C  0.54216941  0.24439181  0.37331584    -0.03020
Br1431     Br  0.57089464  0.22390368  0.36573276    -0.01570
Br1432     Br  0.56993006  0.27967319  0.33711459    -0.01640
Br1433     Br  0.47670582  0.24620007  0.42645030    -0.01600
Br1434     Br  0.46927133  0.29289984  0.38198250    -0.01580
C1435       C  0.56831263  0.07741575  0.46314137    -0.02710
C1436       C  0.57034605  0.10286427  0.45879684     0.06970
C1437       C  0.59212837  0.11510147  0.46935460    -0.02820
C1438       C  0.61165253  0.10182292  0.48388633    -0.02820
C1439       C  0.60977710  0.07620470  0.48808668     0.07110
C1440       C  0.58735679  0.06424622  0.47821579    -0.03020
Br1441     Br  0.58046970  0.02979833  0.48612126    -0.01570
Br1442     Br  0.53880225  0.06043580  0.44902076    -0.01640
Br1443     Br  0.64142127  0.11860754  0.49677219    -0.01600
Br1444     Br  0.59653703  0.14994887  0.46208820    -0.01580
C1445       C  0.55939848  0.09442811  0.34704807    -0.02710
C1446       C  0.57154869  0.11652499  0.35659031     0.06970
C1447       C  0.59755172  0.11818810  0.35341314    -0.02820
C1448       C  0.61110493  0.09855744  0.34074458    -0.02820
C1449       C  0.59866865  0.07720833  0.33009741     0.07110
C1450       C  0.57288850  0.07525918  0.33368278    -0.03020
Br1451     Br  0.55631955  0.04503488  0.32254504    -0.01570
Br1452     Br  0.52439302  0.08812589  0.35351206    -0.01640
Br1453     Br  0.64686752  0.10159396  0.33792759    -0.01600
Br1454     Br  0.61456145  0.14783238  0.36519777    -0.01580
C1455       C  0.50980924  0.24076361  0.11822203    -0.02710
C1456       C  0.52654171  0.23262602  0.14098323     0.06970
C1457       C  0.54604605  0.24839019  0.14991996    -0.02820
C1458       C  0.54780613  0.27244103  0.13747044    -0.02820
C1459       C  0.53077333  0.28021223  0.11461141     0.07110
C1460       C  0.51400265  0.26289294  0.10284673    -0.03020
Br1461     Br  0.49788221  0.26824019  0.06412347    -0.01570
Br1462     Br  0.47899121  0.22436264  0.10941924    -0.01640
Br1463     Br  0.57281344  0.29443959  0.15324638    -0.01600
Br1464     Br  0.56824010  0.23824356  0.18211820    -0.01580
C1465       C  0.60726801  0.07182465  0.20261883    -0.02710
C1466       C  0.62092187  0.08187477  0.22702367     0.06970
C1467       C  0.61265921  0.10428329  0.23875377    -0.02820
C1468       C  0.58927111  0.11425502  0.22993179    -0.02820
C1469       C  0.57368212  0.10178792  0.20865214     0.07110
C1470       C  0.58302416  0.08004558  0.19574674    -0.03020
Br1471     Br  0.56237494  0.05931129  0.17078245    -0.01570
Br1472     Br  0.62203521  0.04765626  0.17653396    -0.01640
Br1473     Br  0.57969851  0.14488528  0.24853668    -0.01600
Br1474     Br  0.63484137  0.12288766  0.26400167    -0.01580
C1475       C  0.49653095  0.18729074  0.27503139    -0.02710
C1476       C  0.49690851  0.16696001  0.25600877     0.06970
C1477       C  0.48978759  0.14362041  0.26723714    -0.02820
C1478       C  0.48245224  0.14052321  0.29729723    -0.02820
C1479       C  0.48405024  0.16039761  0.31745170     0.07110
C1480       C  0.48997210  0.18424585  0.30551610    -0.03020
Br1481     Br  0.48838078  0.21371071  0.32927139    -0.01570
Br1482     Br  0.50445746  0.21950140  0.25881636    -0.01640
Br1483     Br  0.46819454  0.10926351  0.30934707    -0.01600
Br1484     Br  0.49146345  0.11512890  0.24186572    -0.01580
C1485       C  0.47286706  0.15623249  0.04853671    -0.02710
C1486       C  0.49231302  0.16238603  0.06808292     0.06970
C1487       C  0.51313930  0.17538645  0.05686636    -0.02820
C1488       C  0.51575828  0.17994549  0.02583187    -0.02820
C1489       C  0.49683604  0.17252762  0.00550751     0.07110
C1490       C  0.47445516  0.16211307  0.01768921    -0.03020
Br1491     Br  0.44456140  0.15661747  0.49392015    -0.01570
Br1492     Br  0.44345875  0.14055225  0.06472037    -0.01640
Br1493     Br  0.54556378  0.19676706  0.01242337    -0.01600
Br1494     Br  0.53879768  0.18693479  0.08367020    -0.01580
C1495       C  0.60181115  0.11203656  0.11357064    -0.02710
C1496       C  0.57559184  0.11313038  0.11252750     0.06970
C1497       C  0.56248517  0.09272398  0.09970024    -0.02820
C1498       C  0.57528318  0.07201549  0.08895924    -0.02820
C1499       C  0.60139107  0.07140801  0.08897989     0.07110
C1500       C  0.61466424  0.09168378  0.10134253    -0.03020
Br1501     Br  0.65062471  0.09314619  0.09982964    -0.01570
Br1502     Br  0.62033614  0.13923364  0.12991598    -0.01640
Br1503     Br  0.55660889  0.04364712  0.07531634    -0.01600
Br1504     Br  0.52657862  0.09115897  0.09639662    -0.01580
C1505       C  0.50992822  0.77284944  0.38214394    -0.02710
C1506       C  0.49089626  0.78206385  0.36294050     0.06970
C1507       C  0.46989790  0.76706903  0.35730031    -0.02820
C1508       C  0.46832813  0.74303794  0.37008137    -0.02820
C1509       C  0.48752087  0.73409684  0.38952599     0.07110
C1510       C  0.50667630  0.75061851  0.39784891    -0.03020
Br1511     Br  0.52648077  0.74534932  0.43409394    -0.01570
Br1512     Br  0.54117273  0.78980182  0.38774839    -0.01640
Br1513     Br  0.43882459  0.72386588  0.36236333    -0.01600
Br1514     Br  0.44436309  0.77855018  0.32969929    -0.01580
C1515       C  0.55108765  0.94155383  0.31216660    -0.02710
C1516       C  0.56006239  0.92033110  0.32821201     0.06970
C1517       C  0.58607694  0.91546551  0.32798552    -0.02820
C1518       C  0.60254308  0.93165304  0.31299741    -0.02820
C1519       C  0.59382605  0.95435161  0.30078953     0.07110
C1520       C  0.56783240  0.95832405  0.29884587    -0.03020
Br1521     Br  0.55449112  0.98537690  0.27470343    -0.01570
Br1522     Br  0.51576882  0.94819596  0.30610398    -0.01640
Br1523     Br  0.63657791  0.92096511  0.30740859    -0.01600
Br1524     Br  0.60029205  0.88704420  0.34855912    -0.01580
C1525       C  0.50281060  0.76411267  0.10084658    -0.02710
C1526       C  0.48389664  0.78011575  0.11103053     0.06970
C1527       C  0.46550483  0.77039320  0.13060338    -0.02820
C1528       C  0.46840530  0.74651122  0.14310264    -0.02820
C1529       C  0.48931015  0.73200502  0.13584907     0.07110
C1530       C  0.50662342  0.74115404  0.11483087    -0.03020
Br1531     Br  0.53634371  0.72314159  0.10494682    -0.01570
Br1532     Br  0.52195643  0.77170337  0.06509162    -0.01640
Br1533     Br  0.44479242  0.73457075  0.17240398    -0.01600
Br1534     Br  0.43524662  0.78827405  0.13906870    -0.01580
C1535       C  0.58109230  0.95604393  0.08482331    -0.02710
C1536       C  0.59765521  0.94984539  0.06149501     0.06970
C1537       C  0.59756696  0.92547980  0.05058396    -0.02820
C1538       C  0.57964531  0.90846254  0.06097717    -0.02820
C1539       C  0.56067626  0.91613338  0.08068437     0.07110
C1540       C  0.56228218  0.93960288  0.09358499    -0.03020
Br1541     Br  0.53996298  0.94884850  0.12518041    -0.01570
Br1542     Br  0.58513292  0.98625384  0.10701211    -0.01640
Br1543     Br  0.58130638  0.87474926  0.04776972    -0.01600
Br1544     Br  0.62110183  0.91504659  0.02069018    -0.01580
C1545       C  0.52139030  0.86912044  0.49287188    -0.02710
C1546       C  0.50728473  0.84885877  0.00350477     0.06970
C1547       C  0.49884726  0.83133501  0.48295347    -0.02820
C1548       C  0.50382136  0.83474564  0.45217418    -0.02820
C1549       C  0.52068771  0.85326490  0.44233157     0.07110
C1550       C  0.53030215  0.86972725  0.46348070    -0.03020
Br1551     Br  0.55567351  0.89341086  0.45260009    -0.01570
Br1552     Br  0.52471024  0.89856415  0.01607119    -0.01640
Br1553     Br  0.48385369  0.81656039  0.42450379    -0.01600
Br1554     Br  0.48018609  0.80296438  0.49646008    -0.01580
C1555       C  0.53438701  0.86690842  0.24072984    -0.02710
C1556       C  0.51588065  0.85088741  0.25310947     0.06970
C1557       C  0.50108170  0.83696523  0.23320846    -0.02820
C1558       C  0.50318716  0.84056514  0.20205061    -0.02820
C1559       C  0.52107789  0.85686311  0.18990360     0.07110
C1560       C  0.53685102  0.86974559  0.20935395    -0.03020
Br1561     Br  0.56219907  0.89112328  0.19272602    -0.01570
Br1562     Br  0.55686937  0.88579448  0.26534747    -0.01640
Br1563     Br  0.47947636  0.82445170  0.17659947    -0.01600
Br1564     Br  0.47840212  0.81174447  0.24762371    -0.01580
C1565       C  0.26551975  0.01362019  0.99675596    -0.02710
C1566       C  0.27680459  0.99151427  0.48689161     0.06970
C1567       C  0.26402509  0.96905169  0.49197261    -0.02820
C1568       C  0.24120812  0.96851839  0.50779511    -0.02820
C1569       C  0.23046540  0.99052912  0.01881455     0.07110
C1570       C  0.24364156  0.01298496  0.01408789    -0.03020
Br1571     Br  0.23324629  0.04383901  0.03179378    -0.01570
Br1572     Br  0.27854658  0.04582460  0.98569943    -0.01640
Br1573     Br  0.22590907  0.93685483  0.51545431    -0.01600
Br1574     Br  0.27620321  0.93885063  0.47477826    -0.01580
C1575       C  0.40576394  0.08175461  0.43284596    -0.02710
C1576       C  0.41284113  0.06436735  0.45523608     0.06970
C1577       C  0.43644735  0.06639899  0.46910373    -0.02820
C1578       C  0.45316211  0.08490081  0.45980286    -0.02820
C1579       C  0.44717769  0.10054512  0.43509110     0.07110
C1580       C  0.42304262  0.09930619  0.42221208    -0.03020
Br1581     Br  0.41367180  0.12047825  0.38875267    -0.01570
Br1582     Br  0.37268457  0.08129726  0.41568189    -0.01640
Br1583     Br  0.48347941  0.08985154  0.48265617    -0.01600
Br1584     Br  0.44563255  0.04437588  0.50180636    -0.01580
C1585       C  0.39837617  0.92145225  0.40644003    -0.02710
C1586       C  0.41088716  0.94070089  0.42193764     0.06970
C1587       C  0.43661557  0.93843980  0.42756294    -0.02820
C1588       C  0.44973001  0.91730216  0.41856050    -0.02820
C1589       C  0.43733286  0.89780080  0.40294669     0.07110
C1590       C  0.41155884  0.90036955  0.39692591    -0.03020
Br1591     Br  0.39352577  0.87423152  0.37734351    -0.01570
Br1592     Br  0.36242418  0.92144980  0.40179000    -0.01640
Br1593     Br  0.48530501  0.91771996  0.42654915    -0.01600
Br1594     Br  0.45484254  0.96595632  0.44441071    -0.01580
C1595       C  0.40477128  0.91635274  0.00559306    -0.02710
C1596       C  0.38659060  0.92990723  0.02063379     0.06970
C1597       C  0.38827614  0.93080359  0.05189160    -0.02820
C1598       C  0.40914363  0.92065485  0.06708305    -0.02820
C1599       C  0.43072331  0.91291541  0.05141477     0.07110
C1600       C  0.42770371  0.91037527  0.01980366    -0.03020
Br1601     Br  0.45399627  0.89753473  0.49520996    -0.01570
Br1602     Br  0.39430963  0.89783816  0.47164542    -0.01640
Br1603     Br  0.40348566  0.91096620  0.10707259    -0.01600
Br1604     Br  0.35949047  0.94231897  0.07345732    -0.01580
C1605       C  0.27551948  0.98357959  0.27656212    -0.02710
C1606       C  0.27990902  0.98851711  0.24578381     0.06970
C1607       C  0.25976909  0.99072586  0.22577094    -0.02820
C1608       C  0.23543961  0.99076325  0.23670713    -0.02820
C1609       C  0.23068497  0.98701077  0.26748401     0.07110
C1610       C  0.25089334  0.98308672  0.28740297    -0.03020
Br1611     Br  0.24484314  0.97821699  0.32969586    -0.01570
Br1612     Br  0.30299263  0.97792956  0.30405671    -0.01640
Br1613     Br  0.20943768  0.99842303  0.20912966    -0.01600
Br1614     Br  0.26540904  0.99222978  0.18292376    -0.01580
C1615       C  0.42835208  0.10683307  0.19530222    -0.02710
C1616       C  0.44667727  0.10071876  0.17413976     0.06970
C1617       C  0.44644254  0.07733886  0.16108231    -0.02820
C1618       C  0.42958574  0.05937860  0.17093801    -0.02820
C1619       C  0.41206295  0.06464123  0.19357893     0.07110
C1620       C  0.41111656  0.08887354  0.20511690    -0.03020
Br1621     Br  0.38777521  0.09757818  0.23607623    -0.01570
Br1622     Br  0.42753961  0.13941491  0.21205092    -0.01640
Br1623     Br  0.43106755  0.02780767  0.15226944    -0.01600
Br1624     Br  0.46875022  0.07006513  0.12841898    -0.01580
C1625       C  0.43639748  0.93978072  0.17806750    -0.02710
C1626       C  0.41183201  0.93621693  0.18708296     0.06970
C1627       C  0.40108345  0.91233250  0.18531278    -0.02820
C1628       C  0.41437994  0.89271831  0.17234851    -0.02820
C1629       C  0.43790439  0.89710852  0.15987978     0.07110
C1630       C  0.44930148  0.92062806  0.16433831    -0.03020
Br1631     Br  0.48224165  0.92887237  0.15076003    -0.01570
Br1632     Br  0.45216106  0.97158500  0.18262282    -0.01640
Br1633     Br  0.40002667  0.86033118  0.16980782    -0.01600
Br1634     Br  0.36810685  0.90603851  0.20041405    -0.01580
C1635       C  0.37597608  0.02739430  0.33209841    -0.02710
C1636       C  0.35579781  0.03189108  0.31183591     0.06970
C1637       C  0.33138763  0.03369936  0.32411043    -0.02820
C1638       C  0.32692650  0.02693792  0.35439934    -0.02820
C1639       C  0.34678548  0.02003725  0.37341538     0.07110
C1640       C  0.37137540  0.02181251  0.36260495    -0.03020
Br1641     Br  0.39919053  0.01601012  0.38962264    -0.01570
Br1642     Br  0.41039833  0.02894329  0.31946590    -0.01640
Br1643     Br  0.29364754  0.02784978  0.37045376    -0.01600
Br1644     Br  0.30380324  0.04702678  0.30082745    -0.01580
C1645       C  0.36565540  0.99931715  0.11145973    -0.02710
C1646       C  0.34300240  0.00565918  0.12545717     0.06970
C1647       C  0.32558148  0.01954885  0.10841304    -0.02820
C1648       C  0.33009435  0.02563164  0.07779906    -0.02820
C1649       C  0.35234383  0.01801572  0.06346906     0.07110
C1650       C  0.37061648  0.00569913  0.08130872    -0.03020
Br1651     Br  0.40351693  0.99764489  0.06596008    -0.01570
Br1652     Br  0.39129179  0.98239413  0.13310129    -0.01640
Br1653     Br  0.30702361  0.04729491  0.05728069    -0.01600
Br1654     Br  0.29594109  0.03143329  0.12763940    -0.01580
C1655       C  0.42632179  0.93591664  0.32639268    -0.02710
C1656       C  0.44147747  0.92044062  0.30860441     0.06970
C1657       C  0.43602041  0.91958600  0.27752374    -0.02820
C1658       C  0.42037060  0.93788866  0.26638926    -0.02820
C1659       C  0.39899676  0.94306335  0.28337499     0.07110
C1660       C  0.40322160  0.94433750  0.31462291    -0.03020
Br1661     Br  0.37961757  0.96041586  0.33999760    -0.01570
Br1662     Br  0.44107252  0.95442468  0.35811518    -0.01640
Br1663     Br  0.44178938  0.96626416  0.26090588    -0.01600
Br1664     Br  0.45639067  0.90293826  0.24870099    -0.01580
O1665       O  0.38098408  0.02909686  0.76679974    -0.86210
O1666       O  0.37983567  0.98058529  0.77331032    -0.83250
C1667       C  0.37925257  0.95811465  0.76869545     0.97250
O1668       O  0.36656743  0.95026217  0.74659368    -0.83290
O1669       O  0.32114515  0.97514263  0.73963757    -0.85930
C1670       C  0.30531801  0.99143866  0.73416777     1.01780
O1671       O  0.31098251  0.00959862  0.71754159    -0.78690
O1672       O  0.34091843  0.02939088  0.76089388    -0.78880
C1673       C  0.35947305  0.03091714  0.77825421     1.01730
O1674       O  0.40420880  0.02308253  0.70852620    -0.86210
O1675       O  0.40512174  0.97196963  0.71721420    -0.83270
C1676       C  0.39699758  0.95742595  0.69733522     0.97270
O1677       O  0.37554956  0.96008184  0.68690034    -0.83300
O1678       O  0.33366091  0.98474092  0.67357918    -0.85900
C1679       C  0.34104574  0.00411271  0.65914626     1.01750
O1680       O  0.34749647  0.02303610  0.67328130    -0.78720
O1681       O  0.37384452  0.04921451  0.71449853    -0.78870
C1682       C  0.39577287  0.04464597  0.70572461     1.01710
Cr1683     Cr  0.39103891  0.00106824  0.74003171     1.93740
Cr1684     Cr  0.34922957  0.96999084  0.71266253     1.93210
Cr1685     Cr  0.34439618  0.02615044  0.71690206     1.39100
O1686       O  0.36208372  0.99894965  0.72218714    -1.23960
O1687       O  0.37771646  0.02035860  0.51897844    -0.86210
O1688       O  0.37412730  0.97074652  0.51425151    -0.83250
C1689       C  0.37208739  0.94940474  0.50432338     0.97250
O1690       O  0.36206885  0.94638400  0.97861784    -0.83290
O1691       O  0.31689032  0.97379827  0.97447856    -0.85930
C1692       C  0.30237291  0.99206290  0.97314086     1.01780
O1693       O  0.31021428  0.01141792  0.96064088    -0.78690
O1694       O  0.33784042  0.02259051  0.51192438    -0.78880
C1695       C  0.35605175  0.02101970  0.53001938     1.01730
O1696       O  0.40385233  0.02182743  0.96255995    -0.86210
O1697       O  0.40314621  0.96981300  0.96100702    -0.83270
C1698       C  0.39673280  0.96144161  0.93552722     0.97270
O1699       O  0.37677985  0.96870060  0.92353810    -0.83300
O1700       O  0.33374528  0.99355948  0.91453895    -0.85900
C1701       C  0.34270500  0.01421673  0.90571246     1.01750
O1702       O  0.34935845  0.03004808  0.92451995    -0.78720
O1703       O  0.37414612  0.04801354  0.97294294    -0.78870
C1704       C  0.39603009  0.04373942  0.96369306     1.01710
Cr1705     Cr  0.38820920  0.99595262  0.98775430     1.93740
Cr1706     Cr  0.34755562  0.97240555  0.94922687     1.93210
Cr1707     Cr  0.34380205  0.02633325  0.96773337     1.39100
O1708       O  0.36021871  0.99818575  0.96760978    -1.23960
O1709       O  0.52206614  0.84289966  0.63968546    -0.86850
O1710       O  0.50573421  0.81508333  0.59263321    -0.83250
C1711       C  0.48566789  0.80698811  0.60347560     0.97250
O1712       O  0.46826900  0.82191268  0.60848185    -0.83290
O1713       O  0.44313013  0.86854028  0.61748767    -0.85930
C1714       C  0.45118939  0.87831871  0.64175540     1.01780
O1715       O  0.47355539  0.87705015  0.64680058    -0.78690
O1716       O  0.52078152  0.88262212  0.64575692    -0.78880
C1717       C  0.52215375  0.86101953  0.65696150     1.01730
O1718       O  0.54406380  0.87776672  0.59751483    -0.86210
O1719       O  0.52124225  0.85240026  0.55278740    -0.83270
C1720       C  0.50327526  0.84621113  0.53621176     0.97270
O1721       O  0.48276931  0.83840600  0.54751415    -0.83300
O1722       O  0.45918090  0.88018160  0.55707900    -0.85900
C1723       C  0.45262348  0.90036325  0.56728582     1.01750
O1724       O  0.46322736  0.90768485  0.59152117    -0.78720
O1725       O  0.51739306  0.90760192  0.58779159    -0.78870
C1726       C  0.53962526  0.89963591  0.58860975     1.01710
Cr1727     Cr  0.52160970  0.84801294  0.59585265     1.93740
Cr1728     Cr  0.46520503  0.85251393  0.58406239     1.93210
Cr1729     Cr  0.49359492  0.89251032  0.61627988     1.39100
O1730       O  0.49355388  0.86464875  0.59770097    -1.23960
O1731       O  0.52596983  0.84213927  0.89092195    -0.86210
O1732       O  0.51217275  0.81637924  0.84117612    -0.83250
C1733       C  0.49205873  0.80815817  0.85190185     0.97250
O1734       O  0.47360642  0.82248772  0.85465494    -0.83290
O1735       O  0.44674361  0.86807323  0.86411346    -0.85930
C1736       C  0.45215373  0.87701377  0.88965338     1.01780
O1737       O  0.47384512  0.87391816  0.89857879    -0.78690
O1738       O  0.52356702  0.88072810  0.90069171    -0.78880
C1739       C  0.52433260  0.85879318  0.90997797     1.01730
O1740       O  0.54802416  0.88090035  0.85053612    -0.86210
O1741       O  0.52816616  0.85611796  0.80401393    -0.83270
C1742       C  0.51119200  0.84967364  0.78622096     0.97270
O1743       O  0.49030497  0.84233815  0.79657836    -0.83300
O1744       O  0.46687028  0.88503473  0.80925027    -0.85900
C1745       C  0.46098471  0.90451728  0.82229500     1.01750
O1746       O  0.46945295  0.90869038  0.84837722    -0.78720
O1747       O  0.52021901  0.91006338  0.84770616    -0.78870
C1748       C  0.54199753  0.90281496  0.84286463     1.01710
Cr1749     Cr  0.52697834  0.84995918  0.84716818     1.93740
Cr1750     Cr  0.47122407  0.85459724  0.83255638     1.93210
Cr1751     Cr  0.49686433  0.89189198  0.87264495     1.39100
O1752       O  0.49847461  0.86591121  0.84977723    -1.23960
O1753       O  0.49087286  0.13454230  0.61036916    -0.86210
O1754       O  0.53982222  0.13767594  0.61601746    -0.83250
C1755       C  0.56121502  0.13435991  0.62559753     0.97250
O1756       O  0.56668057  0.14462151  0.65047239    -0.83290
O1757       O  0.54181989  0.19233972  0.65394851    -0.85930
C1758       C  0.52394949  0.20759662  0.65451131     1.01780
O1759       O  0.50352808  0.20139930  0.66633801    -0.78690
O1760       O  0.48962595  0.17376208  0.61881839    -0.78880
C1761       C  0.49048467  0.15651946  0.60054084     1.01730
O1762       O  0.48938740  0.10908734  0.66834003    -0.86210
O1763       O  0.54146490  0.10736096  0.67042764    -0.83270
C1764       C  0.55060779  0.11380447  0.69561387     0.97270
O1765       O  0.54299625  0.13337386  0.70658831    -0.83300
O1766       O  0.52247233  0.17782676  0.71346966    -0.85900
C1767       C  0.50162568  0.17000383  0.72348257     1.01750
O1768       O  0.48445459  0.16385807  0.70568012    -0.78720
O1769       O  0.46363335  0.13950974  0.65846366    -0.78870
C1770       C  0.46751744  0.11749538  0.66712676     1.01710
Cr1771     Cr  0.51515650  0.12350894  0.64270848     1.93740
Cr1772     Cr  0.54187875  0.16199268  0.67964936     1.93210
Cr1773     Cr  0.48686457  0.16858135  0.66230760     1.39100
O1774       O  0.51451003  0.15114269  0.66219755    -1.23960
O1775       O  0.48557189  0.13407579  0.86179225    -0.86210
O1776       O  0.53464307  0.13886253  0.86255122    -0.83250
C1777       C  0.55663948  0.13676302  0.87065231     0.97250
O1778       O  0.56295108  0.14736157  0.89501199    -0.83290
O1779       O  0.53724830  0.19412266  0.89868845    -0.85930
C1780       C  0.51966886  0.20932853  0.90149292     1.01780
O1781       O  0.49963310  0.20191990  0.91336067    -0.78690
O1782       O  0.48229041  0.17326516  0.86856640    -0.78880
C1783       C  0.48316562  0.15563426  0.85076900     1.01730
O1784       O  0.48860281  0.10915568  0.92009463    -0.86210
O1785       O  0.54046882  0.10971324  0.91839494    -0.83270
C1786       C  0.54992302  0.11680648  0.94323313     0.97270
O1787       O  0.54360508  0.13712346  0.95359180    -0.83300
O1788       O  0.52105294  0.18089977  0.96001481    -0.85900
C1789       C  0.50090641  0.17323722  0.97210722     1.01750
O1790       O  0.48402852  0.16494238  0.95558928    -0.78720
O1791       O  0.46130577  0.13857288  0.91256918    -0.78870
C1792       C  0.46662682  0.11706543  0.92222643     1.01710
Cr1793     Cr  0.51221846  0.12436881  0.89192358     1.93740
Cr1794     Cr  0.53940433  0.16462752  0.92542428     1.93210
Cr1795     Cr  0.48346725  0.16868324  0.91234255     1.39100
O1796       O  0.51162664  0.15231564  0.91049252    -1.23960
O1797       O  0.66792987  0.98827943  0.99366192    -0.86210
O1798       O  0.69995587  0.00104940  0.53759980    -0.83250
C1799       C  0.70653696  0.02126553  0.52573711     0.97250
O1800       O  0.69168157  0.03948372  0.52568054    -0.83290
O1801       O  0.64350049  0.06606263  0.52473004    -0.85930
C1802       C  0.63075594  0.06093955  0.00118559     1.01780
O1803       O  0.63211472  0.03967064  0.99212204    -0.78690
O1804       O  0.62787114  0.99197367  0.98771794    -0.78880
C1805       C  0.64951664  0.99092270  0.97656447     1.01730
O1806       O  0.63505401  0.96459442  0.53740328    -0.86210
O1807       O  0.66437509  0.98410545  0.58077940    -0.83270
C1808       C  0.67232347  0.00054211  0.59783929     0.97270
O1809       O  0.67977731  0.02096223  0.58640716    -0.83300
O1810       O  0.63567611  0.04426600  0.58276176    -0.85900
C1811       C  0.61465445  0.05094465  0.57345616     1.01750
O1812       O  0.60624755  0.04216612  0.54898024    -0.78720
O1813       O  0.60585966  0.99109379  0.54760607    -0.78870
C1814       C  0.61387197  0.96937073  0.54839656     1.01710
Cr1815     Cr  0.66569042  0.98621271  0.53732466     1.93740
Cr1816     Cr  0.66237774  0.04096088  0.55332759     1.93210
Cr1817     Cr  0.61965032  0.01590883  0.52047516     1.39100
O1818       O  0.64906234  0.01429425  0.53769019    -1.23960
O1819       O  0.67152332  0.99121419  0.74530391    -0.86210
O1820       O  0.69798716  0.00470646  0.79475033    -0.83250
C1821       C  0.70684979  0.02411783  0.78320148     0.97250
O1822       O  0.69240750  0.04207704  0.77855100    -0.83290
O1823       O  0.64723617  0.06988354  0.77051163    -0.85930
C1824       C  0.63787938  0.06501123  0.74481242     1.01780
O1825       O  0.63753826  0.04315101  0.73744132    -0.78690
O1826       O  0.63191258  0.99548301  0.73433193    -0.78880
C1827       C  0.65438125  0.99285665  0.72595357     1.01730
O1828       O  0.63334649  0.96938364  0.78283264    -0.86210
O1829       O  0.65718834  0.98939640  0.83147759    -0.83270
C1830       C  0.66599340  0.00536988  0.84877351     0.97270
O1831       O  0.67544056  0.02496888  0.83755076    -0.83300
O1832       O  0.63268246  0.04991697  0.82761797    -0.85900
C1833       C  0.61277020  0.05698533  0.81556374     1.01750
O1834       O  0.60619389  0.04830537  0.79017439    -0.78720
O1835       O  0.60458691  0.99652101  0.79138463    -0.78870
C1836       C  0.61143883  0.97431477  0.79122396     1.01710
Cr1837     Cr  0.66409098  0.99027776  0.78845621     1.93740
Cr1838     Cr  0.66159825  0.04503441  0.80219347     1.93210
Cr1839     Cr  0.62124353  0.02066989  0.76478142     1.39100
O1840       O  0.64870055  0.01869655  0.78559385    -1.23960
O1841       O  0.13335003  0.02486963  0.98580112    -0.86210
O1842       O  0.13461129  0.97665508  0.98970448    -0.83250
C1843       C  0.13202124  0.95510328  0.99803674     0.97250
O1844       O  0.14157321  0.94899028  0.52333633    -0.83290
O1845       O  0.18939908  0.97349696  0.52948194    -0.85930
C1846       C  0.20488399  0.99079771  0.53281245     1.01780
O1847       O  0.19788974  0.00929070  0.54732864    -0.78690
O1848       O  0.17291131  0.02639221  0.99777647    -0.78880
C1849       C  0.15613587  0.02563931  0.97791966     1.01730
O1850       O  0.10477614  0.02527180  0.54226680    -0.86210
O1851       O  0.10218452  0.97365354  0.54266510    -0.83270
C1852       C  0.10807050  0.96403341  0.56820714     0.97270
O1853       O  0.12894490  0.96905306  0.57958383    -0.83300
O1854       O  0.17403565  0.99013137  0.58924456    -0.85900
C1855       C  0.16579683  0.00977083  0.60109231     1.01750
O1856       O  0.15840099  0.02706182  0.58420089    -0.78720
O1857       O  0.13627742  0.05023784  0.53640598    -0.78870
C1858       C  0.11423891  0.04630719  0.54532258     1.01710
Cr1859     Cr  0.11999726  0.00026763  0.51648794     1.93740
Cr1860     Cr  0.15838905  0.97210411  0.55408857     1.93210
Cr1861     Cr  0.16526185  0.02678849  0.54111674     1.39100
O1862       O  0.14742585  0.99979038  0.53781320    -1.23960
O1863       O  0.12574299  0.01802088  0.74214750    -0.86210
O1864       O  0.12677660  0.97175548  0.75502552    -0.83250
C1865       C  0.12733684  0.95092690  0.76628870     0.97250
O1866       O  0.14235933  0.94690954  0.78808377    -0.83290
O1867       O  0.18958646  0.97299493  0.77982777    -0.85930
C1868       C  0.20523589  0.99038882  0.77932633     1.01780
O1869       O  0.19953608  0.01103125  0.79010388    -0.78690
O1870       O  0.16634819  0.02174202  0.74510863    -0.78880
C1871       C  0.14698927  0.01844335  0.72943051     1.01730
O1872       O  0.10735959  0.02584944  0.80436062    -0.86210
O1873       O  0.10642228  0.97517853  0.81359487    -0.83270
C1874       C  0.11664947  0.96578444  0.83693880     0.97270
O1875       O  0.13867541  0.97115399  0.84353615    -0.83300
O1876       O  0.18275456  0.99489652  0.83925379    -0.85900
C1877       C  0.17508003  0.01503743  0.85041829     1.01750
O1878       O  0.16549636  0.03115118  0.83302936    -0.78720
O1879       O  0.13587112  0.04983668  0.78577385    -0.78870
C1880       C  0.11459583  0.04705994  0.79741788     1.01710
Cr1881     Cr  0.11825156  0.99815286  0.78012267     1.93740
Cr1882     Cr  0.16292299  0.97324255  0.81097764     1.93210
Cr1883     Cr  0.16571075  0.02685837  0.78896737     1.39100
O1884       O  0.14869483  0.99936783  0.79384925    -1.23960
O1885       O  0.99069108  0.84090852  0.62230562    -0.86210
O1886       O  0.00780017  0.80997710  0.66687562    -0.83250
C1887       C  0.02798769  0.80439233  0.65401143     0.97250
O1888       O  0.04521691  0.81995008  0.65155577    -0.83290
O1889       O  0.07011486  0.86674193  0.65001365    -0.85930
C1890       C  0.06432314  0.87828089  0.62563904     1.01780
O1891       O  0.04193707  0.87898180  0.61824037    -0.78690
O1892       O  0.99262068  0.88060505  0.61728703    -0.78880
C1893       C  0.99023776  0.85957722  0.60527813     1.01730
O1894       O  0.96768028  0.87303984  0.66628012    -0.86210
O1895       O  0.99085731  0.84423880  0.71084258    -0.83270
C1896       C  0.00857767  0.83580688  0.72682383     0.97270
O1897       O  0.02901325  0.82928469  0.71434401    -0.83300
O1898       O  0.04973585  0.87294774  0.70896303    -0.85900
C1899       C  0.05508105  0.89419295  0.70100180     1.01750
O1900       O  0.04626136  0.90301760  0.67639967    -0.78720
O1901       O  0.99473769  0.90085602  0.67841404    -0.78870
C1902       C  0.97238873  0.89443134  0.67603599     1.01710
Cr1903     Cr  0.99088006  0.84309178  0.66656128     1.93740
Cr1904     Cr  0.04676327  0.84752887  0.67974582     1.93210
Cr1905     Cr  0.01874108  0.88927779  0.64882913     1.39100
O1906       O  0.01884317  0.86002208  0.66533447    -1.23960
O1907       O  0.98601144  0.84171424  0.87024181    -0.86210
O1908       O  0.00106479  0.81400330  0.91885919    -0.83250
C1909       C  0.02051725  0.80678814  0.90588647     0.97250
O1910       O  0.03875079  0.82137623  0.90458309    -0.83290
O1911       O  0.06584608  0.86763976  0.90225113    -0.85930
C1912       C  0.06095440  0.88030049  0.87861286     1.01780
O1913       O  0.03975853  0.87818716  0.86778528    -0.78690
O1914       O  0.99050838  0.88095180  0.86101110    -0.78880
C1915       C  0.98822661  0.85910420  0.85134175     1.01730
O1916       O  0.96208457  0.87660684  0.91100525    -0.86210
O1917       O  0.98356587  0.85154566  0.95826121    -0.83270
C1918       C  0.00066845  0.84448838  0.97597313     0.97270
O1919       O  0.02076285  0.83531681  0.96549895    -0.83300
O1920       O  0.04483782  0.87815578  0.95831552    -0.85900
C1921       C  0.05042600  0.89865472  0.94720986     1.01750
O1922       O  0.04029708  0.90575200  0.92276092    -0.78720
O1923       O  0.98909664  0.90570963  0.91958060    -0.78870
C1924       C  0.96703895  0.89811476  0.91989054     1.01710
Cr1925     Cr  0.98488462  0.84693077  0.91449825     1.93740
Cr1926     Cr  0.04057956  0.85068223  0.93097865     1.93210
Cr1927     Cr  0.01454558  0.89110562  0.89414453     1.39100
O1928       O  0.01331406  0.86321827  0.91370920    -1.23960
O1929       O  0.02165580  0.13549518  0.64813148    -0.86210
O1930       O  0.97250130  0.13805129  0.64219578    -0.83250
C1931       C  0.95125450  0.13544377  0.63171055     0.97250
O1932       O  0.94636334  0.14681748  0.60712319    -0.83290
O1933       O  0.97190933  0.19401882  0.60364358    -0.85930
C1934       C  0.98955285  0.20923559  0.60110100     1.01780
O1935       O  0.00972771  0.20188637  0.58986260    -0.78690
O1936       O  0.02410248  0.17505378  0.63899826    -0.78880
C1937       C  0.02258483  0.15743731  0.65746890     1.01730
O1938       O  0.02417974  0.10983274  0.59145970    -0.86210
O1939       O  0.97203345  0.10903394  0.58770829    -0.83270
C1940       C  0.96309240  0.11630037  0.56247963     0.97270
O1941       O  0.96971051  0.13640970  0.55148118    -0.83300
O1942       O  0.99146877  0.17966054  0.54487040    -0.85900
C1943       C  0.01179128  0.17083814  0.53481051     1.01750
O1944       O  0.02889157  0.16410485  0.55258642    -0.78720
O1945       O  0.04988411  0.14006640  0.60076227    -0.78870
C1946       C  0.04608132  0.11815436  0.59236169     1.01710
Cr1947     Cr  0.99779841  0.12447514  0.61602220     1.93740
Cr1948     Cr  0.97156052  0.16407898  0.57844072     1.93210
Cr1949     Cr  0.02657145  0.16928885  0.59564975     1.39100
O1950       O  0.99871532  0.15230659  0.59620074    -1.23960
O1951       O  0.02121547  0.13341818  0.89752360    -0.86210
O1952       O  0.97269601  0.13803011  0.89576906    -0.83250
C1953       C  0.95036727  0.14071981  0.88905594     0.97250
O1954       O  0.94502599  0.15041892  0.86350753    -0.83290
O1955       O  0.97275415  0.19478347  0.85593716    -0.85930
C1956       C  0.99098381  0.20915516  0.85267905     1.01780
O1957       O  0.01022183  0.20131018  0.83992669    -0.78690
O1958       O  0.02432292  0.17286632  0.88916749    -0.78880
C1959       C  0.02319197  0.15512881  0.90749168     1.01730
O1960       O  0.01917188  0.10839197  0.84024214    -0.86210
O1961       O  0.96703039  0.10899975  0.84151633    -0.83270
C1962       C  0.95744876  0.11576631  0.81641286     0.97270
O1963       O  0.96313586  0.13641847  0.80577393    -0.83300
O1964       O  0.98854459  0.17812931  0.79548585    -0.85900
C1965       C  0.00943643  0.17067347  0.78512419     1.01750
O1966       O  0.02600795  0.16305511  0.80285188    -0.78720
O1967       O  0.04631848  0.13717250  0.84881986    -0.78870
C1968       C  0.04120338  0.11615472  0.83845023     1.01710
Cr1969     Cr  0.99513857  0.12368594  0.86723710     1.93740
Cr1970     Cr  0.96919928  0.16461044  0.83148836     1.93210
Cr1971     Cr  0.02494338  0.16757794  0.84558064     1.39100
O1972       O  0.99637399  0.15163594  0.84741221    -1.23960
O1973       O  0.84611774  0.98725967  0.76631712    -0.86210
O1974       O  0.81335657  0.00057440  0.72063816    -0.83250
C1975       C  0.80657526  0.02007500  0.73334033     0.97250
O1976       O  0.82152288  0.03787901  0.73461931    -0.83290
O1977       O  0.86621408  0.06596721  0.73259901    -0.85930
C1978       C  0.87889329  0.06235613  0.75667879     1.01780
O1979       O  0.88345210  0.04070743  0.76497100    -0.78690
O1980       O  0.88646854  0.99135705  0.76894291    -0.78880
C1981       C  0.86567719  0.98841986  0.78215630     1.01730
O1982       O  0.87871728  0.96443338  0.72293576    -0.86210
O1983       O  0.84848792  0.98403168  0.67768330    -0.83270
C1984       C  0.83834649  0.00036474  0.66123274     0.97270
O1985       O  0.83078424  0.02039357  0.67301479    -0.83300
O1986       O  0.87421702  0.04597135  0.67413143    -0.85900
C1987       C  0.89576920  0.05214522  0.68192038     1.01750
O1988       O  0.90518465  0.04316989  0.70614402    -0.78720
O1989       O  0.90546345  0.99137597  0.70713807    -0.78870
C1990       C  0.89955776  0.96915346  0.71103061     1.01710
Cr1991     Cr  0.84768753  0.98588373  0.72182687     1.93740
Cr1992     Cr  0.84872878  0.04073237  0.70494681     1.93210
Cr1993     Cr  0.89343763  0.01632145  0.73553039     1.39100
O1994       O  0.86345652  0.01447271  0.72046882    -1.23960
O1995       O  0.84459232  0.99034735  0.51665799    -0.86210
O1996       O  0.81575307  0.00390209  0.96797977    -0.83250
C1997       C  0.80776916  0.02369408  0.97918448     0.97250
O1998       O  0.82203744  0.04194030  0.98076772    -0.83290
O1999       O  0.86726246  0.06962195  0.98711816    -0.85930
C2000       C  0.87880401  0.06354245  0.51121957     1.01780
O2001       O  0.87648305  0.04204355  0.51956454    -0.78690
O2002       O  0.88427912  0.99457903  0.52555209    -0.78880
C2003       C  0.86230929  0.99182003  0.53538879     1.01730
O2004       O  0.88138412  0.96878458  0.97588383    -0.86210
O2005       O  0.85497490  0.98795642  0.92843241    -0.83270
C2006       C  0.84858126  0.00477182  0.91009233     0.97270
O2007       O  0.83967032  0.02517475  0.91984165    -0.83300
O2008       O  0.88094647  0.05108521  0.93124725    -0.85900
C2009       C  0.90027976  0.05891721  0.94340040     1.01750
O2010       O  0.90803526  0.04808544  0.96726304    -0.78720
O2011       O  0.91068639  0.99594577  0.96806148    -0.78870
C2012       C  0.90330225  0.97396487  0.96724377     1.01710
Cr2013     Cr  0.85010785  0.98950313  0.97228856     1.93740
Cr2014     Cr  0.85252539  0.04486382  0.95622406     1.93210
Cr2015     Cr  0.89344197  0.01988370  0.99344478     1.39100
O2016       O  0.86578410  0.01794764  0.97293174    -1.23960
O2017       O  0.49149863  0.38081996  0.64671408    -0.86210
O2018       O  0.54082902  0.37559535  0.64449493    -0.83250
C2019       C  0.56240356  0.37901403  0.63596971     0.97250
O2020       O  0.56830337  0.36929130  0.61108012    -0.83290
O2021       O  0.54445226  0.32205506  0.60843540    -0.85930
C2022       C  0.52722568  0.30654194  0.60563495     1.01780
O2023       O  0.50616713  0.31332129  0.59503372    -0.78690
O2024       O  0.48731781  0.34170502  0.63832829    -0.78880
C2025       C  0.48795560  0.35906178  0.65653677     1.01730
O2026       O  0.49333886  0.40640622  0.58877786    -0.86210
O2027       O  0.54461411  0.40561172  0.58865040    -0.83270
C2028       C  0.55274353  0.39856462  0.56323436     0.97270
O2029       O  0.54596283  0.37835677  0.55304674    -0.83300
O2030       O  0.52640211  0.33296489  0.54790814    -0.85900
C2031       C  0.50586798  0.33931520  0.53539704     1.01750
O2032       O  0.48929246  0.34915653  0.55095368    -0.78720
O2033       O  0.46635048  0.37628564  0.59371646    -0.78870
C2034       C  0.47153426  0.39835921  0.58621204     1.01710
Cr2035     Cr  0.51748270  0.39062492  0.61600110     1.93740
Cr2036     Cr  0.54449558  0.35106661  0.58152749     1.93210
Cr2037     Cr  0.48888208  0.34618733  0.59461316     1.39100
O2038       O  0.51672062  0.36281050  0.59692132    -1.23960
O2039       O  0.49366640  0.38129560  0.90224081    -0.86210
O2040       O  0.54178465  0.37697539  0.89468904    -0.83250
C2041       C  0.56344559  0.37826379  0.88573254     0.97250
O2042       O  0.56757991  0.36942859  0.85985843    -0.83290
O2043       O  0.53948612  0.32389202  0.85366643    -0.85930
C2044       C  0.52080428  0.30978668  0.85156505     1.01780
O2045       O  0.50115324  0.31796246  0.83926438    -0.78690
O2046       O  0.48921252  0.34298276  0.88943617    -0.78880
C2047       C  0.49185231  0.35863917  0.90952226     1.01730
O2048       O  0.49155821  0.41119491  0.84671657    -0.86210
O2049       O  0.54352437  0.41010788  0.84282160    -0.83270
C2050       C  0.55170258  0.40465135  0.81686248     0.97270
O2051       O  0.54433366  0.38510720  0.80519687    -0.83300
O2052       O  0.52036268  0.34246070  0.79490926    -0.85900
C2053       C  0.49903102  0.34996906  0.78534955     1.01750
O2054       O  0.48333125  0.35796576  0.80361057    -0.78720
O2055       O  0.46475502  0.38133920  0.85255566    -0.78870
C2056       C  0.46960059  0.40331725  0.84451483     1.01710
Cr2057     Cr  0.51730545  0.39361098  0.87007495     1.93740
Cr2058     Cr  0.54122388  0.35538754  0.82991027     1.93210
Cr2059     Cr  0.48629128  0.35124206  0.84650964     1.39100
O2060       O  0.51478653  0.36722894  0.84803288    -1.23960
O2061       O  0.67230671  0.52675592  0.76461271    -0.86210
O2062       O  0.70286058  0.51066626  0.72052607    -0.83250
C2063       C  0.70887609  0.49037120  0.73290262     0.97250
O2064       O  0.69336367  0.47314430  0.73494384    -0.83290
O2065       O  0.64726093  0.44810011  0.73755190    -0.85930
C2066       C  0.63689628  0.45321959  0.76244058     1.01780
O2067       O  0.63614334  0.47525856  0.76971800    -0.78690
O2068       O  0.63235422  0.52420175  0.77032290    -0.78880
C2069       C  0.65391890  0.52707260  0.78184841     1.01730
O2070       O  0.63867099  0.54889102  0.71976488    -0.86210
O2071       O  0.66716852  0.52769996  0.67656641    -0.83270
C2072       C  0.67585029  0.51073052  0.66077989     0.97270
O2073       O  0.68243809  0.49035561  0.67328212    -0.83300
O2074       O  0.63720952  0.46828402  0.67850484    -0.85900
C2075       C  0.61663166  0.46163679  0.68877077     1.01750
O2076       O  0.60913328  0.47066232  0.71345146    -0.78720
O2077       O  0.60910221  0.52209539  0.71060586    -0.78870
C2078       C  0.61713092  0.54382170  0.70959459     1.01710
Cr2079     Cr  0.66912877  0.52681239  0.72051581     1.93740
Cr2080     Cr  0.66468479  0.47179557  0.70724538     1.93210
Cr2081     Cr  0.62326134  0.49826752  0.73966630     1.39100
O2082       O  0.65215891  0.49902392  0.72190699    -1.23960
O2083       O  0.67253220  0.52311634  0.51687268    -0.86210
O2084       O  0.70288553  0.50856462  0.97010910    -0.83250
C2085       C  0.70831634  0.48752499  0.98088528     0.97250
O2086       O  0.69239296  0.47049104  0.98043536    -0.83290
O2087       O  0.64441143  0.44681013  0.98064409    -0.85930
C2088       C  0.63305030  0.45210208  0.50470797     1.01780
O2089       O  0.63602770  0.47305506  0.51431798    -0.78690
O2090       O  0.63215245  0.52086969  0.52232630    -0.78880
C2091       C  0.65377984  0.52236228  0.53392309     1.01730
O2092       O  0.64058744  0.54944998  0.97403579    -0.86210
O2093       O  0.66682372  0.52947697  0.92833973    -0.83270
C2094       C  0.67224219  0.51279238  0.91014917     0.97270
O2095       O  0.68004986  0.49188440  0.91994816    -0.83300
O2096       O  0.63520989  0.47067722  0.92435937    -0.85900
C2097       C  0.61489650  0.46354543  0.93470291     1.01750
O2098       O  0.60736833  0.47316685  0.95895003    -0.78720
O2099       O  0.60909044  0.52534041  0.96301296    -0.78870
C2100       C  0.61853746  0.54656396  0.96424262     1.01710
Cr2101     Cr  0.66970143  0.52591187  0.97220563     1.93740
Cr2102     Cr  0.66295087  0.47187117  0.95293145     1.93210
Cr2103     Cr  0.62272192  0.49832671  0.98810609     1.39100
O2104       O  0.65154000  0.49892031  0.97036547    -1.23960
O2105       O  0.38572546  0.49387719  0.98248903    -0.86210
O2106       O  0.38081513  0.54176553  0.99063483    -0.83250
C2107       C  0.38366295  0.56235429  0.00145497     0.97250
O2108       O  0.37168528  0.56677169  0.52544407    -0.83290
O2109       O  0.32365029  0.54173985  0.52289494    -0.85930
C2110       C  0.30816324  0.52420947  0.52236667     1.01780
O2111       O  0.31419571  0.50316317  0.53280770    -0.78690
O2112       O  0.34562448  0.48922218  0.98800042    -0.78880
C2113       C  0.36416594  0.49121228  0.97091280     1.01730
O2114       O  0.40801015  0.49081849  0.54304576    -0.86210
O2115       O  0.40786715  0.54117547  0.54782391    -0.83270
C2116       C  0.40020752  0.54905624  0.57291916     0.97270
O2117       O  0.37934608  0.54199509  0.58187762    -0.83300
O2118       O  0.33410673  0.52012282  0.58278921    -0.85900
C2119       C  0.34141584  0.49951767  0.59398032     1.01750
O2120       O  0.34972284  0.48353565  0.57648848    -0.78720
O2121       O  0.37837464  0.46474444  0.53185301    -0.78870
C2122       C  0.39977314  0.46927257  0.54278772     1.01710
Cr2123     Cr  0.39394406  0.51654313  0.51722750     1.93740
Cr2124     Cr  0.35242557  0.54092094  0.55164282     1.93210
Cr2125     Cr  0.34800625  0.48686613  0.53241850     1.39100
O2126       O  0.36493814  0.51459271  0.53424484    -1.23960
O2127       O  0.37999458  0.49119460  0.73478686    -0.86210
O2128       O  0.37847025  0.53984644  0.73683315    -0.83250
C2129       C  0.38084133  0.56127745  0.74530042     0.97250
O2130       O  0.36966027  0.56741159  0.76922226    -0.83290
O2131       O  0.32090001  0.54591025  0.77206310    -0.85930
C2132       C  0.30450898  0.52952102  0.77480105     1.01780
O2133       O  0.31042826  0.50836173  0.78521681    -0.78690
O2134       O  0.33975781  0.48974663  0.74139531    -0.78880
C2135       C  0.35805089  0.48975597  0.72386579     1.01730
O2136       O  0.40337064  0.49172701  0.79488949    -0.86210
O2137       O  0.40628532  0.54256678  0.79333933    -0.83270
C2138       C  0.39864214  0.55179953  0.81778040     0.97270
O2139       O  0.37776322  0.54600300  0.82743258    -0.83300
O2140       O  0.33177202  0.52779740  0.83327314    -0.85900
C2141       C  0.33804241  0.50738692  0.84580790     1.01750
O2142       O  0.34519075  0.48974164  0.82987956    -0.78720
O2143       O  0.37261375  0.46613212  0.78690328    -0.78870
C2144       C  0.39481992  0.47026273  0.79583071     1.01710
Cr2145     Cr  0.39034200  0.51616186  0.76630234     1.93740
Cr2146     Cr  0.35032451  0.54489188  0.79899514     1.93210
Cr2147     Cr  0.34312111  0.49004568  0.78570349     1.39100
O2148       O  0.36132426  0.51694667  0.78399266    -1.23960
O2149       O  0.52672819  0.67068945  0.61493246    -0.86210
O2150       O  0.51240600  0.69978342  0.66029222    -0.83250
C2151       C  0.49201401  0.70663979  0.64821504     0.97250
O2152       O  0.47397198  0.69180794  0.64657324    -0.83290
O2153       O  0.44686476  0.64580005  0.64454582    -0.85930
C2154       C  0.45178766  0.63559683  0.61964135     1.01780
O2155       O  0.47355810  0.63731858  0.61125200    -0.78690
O2156       O  0.52196405  0.63166136  0.60589371    -0.78880
C2157       C  0.52438580  0.65368688  0.59643038     1.01730
O2158       O  0.54952706  0.63542708  0.65699669    -0.86210
O2159       O  0.52889771  0.66202487  0.70248294    -0.83270
C2160       C  0.51234057  0.67115114  0.71884167     0.97270
O2161       O  0.49237831  0.67936667  0.70654453    -0.83300
O2162       O  0.46956350  0.63536350  0.70173750    -0.85900
C2163       C  0.46261694  0.61520549  0.69147066     1.01750
O2164       O  0.47080370  0.60786454  0.66627494    -0.78720
O2165       O  0.52236176  0.60585213  0.66429449    -0.78870
C2166       C  0.54436578  0.61364946  0.66553094     1.01710
Cr2167     Cr  0.52780871  0.66590019  0.65864065     1.93740
Cr2168     Cr  0.47243011  0.66271445  0.67345053     1.93210
Cr2169     Cr  0.49740580  0.62205879  0.63824604     1.39100
O2170       O  0.49940329  0.64988005  0.65744208    -1.23960
O2171       O  0.52613480  0.67168805  0.86434160    -0.86210
O2172       O  0.51119516  0.70062521  0.90919312    -0.83250
C2173       C  0.49015908  0.70755974  0.89916505     0.97250
O2174       O  0.47269264  0.69199065  0.89756570    -0.83290
O2175       O  0.44877785  0.64311903  0.89844395    -0.85930
C2176       C  0.45390363  0.63049542  0.87517937     1.01780
O2177       O  0.47518769  0.63199865  0.86507203    -0.78690
O2178       O  0.52348390  0.63180983  0.85855627    -0.78880
C2179       C  0.52444807  0.65356725  0.84730430     1.01730
O2180       O  0.55204644  0.63909236  0.90732654    -0.86210
O2181       O  0.53091229  0.66567638  0.95162302    -0.83270
C2182       C  0.51451420  0.67390686  0.96871980     0.97270
O2183       O  0.49369304  0.68101198  0.95738511    -0.83300
O2184       O  0.47280744  0.63678963  0.95591100    -0.85900
C2185       C  0.46662415  0.61582979  0.94775827     1.01750
O2186       O  0.47528895  0.60741502  0.92335600    -0.78720
O2187       O  0.52668679  0.60961083  0.92014310    -0.78870
C2188       C  0.54827019  0.61833243  0.91981924     1.01710
Cr2189     Cr  0.52843540  0.66817972  0.90810001     1.93740
Cr2190     Cr  0.47364809  0.66289190  0.92557082     1.93210
Cr2191     Cr  0.50052830  0.62175011  0.89299573     1.39100
O2192       O  0.50078916  0.65088466  0.90898695    -1.23960
O2193       O  0.02281890  0.37868976  0.61047856    -0.86210
O2194       O  0.97397516  0.37510152  0.61079617    -0.83250
C2195       C  0.95158129  0.37566384  0.61711283     0.97250
O2196       O  0.94529419  0.36611875  0.64232556    -0.83290
O2197       O  0.97150501  0.32053897  0.65292439    -0.85930
C2198       C  0.98955218  0.30590135  0.65682682     1.01780
O2199       O  0.00857649  0.31326703  0.67082862    -0.78690
O2200       O  0.02434209  0.33958084  0.62180854    -0.78880
C2201       C  0.02407239  0.35640397  0.60230715     1.01730
O2202       O  0.02025802  0.40618095  0.66660642    -0.86210
O2203       O  0.96783966  0.40626778  0.66229935    -0.83270
C2204       C  0.95720916  0.40017946  0.68681744     0.97270
O2205       O  0.96312174  0.38054091  0.70002242    -0.83300
O2206       O  0.98672426  0.33797552  0.71328951    -0.85900
C2207       C  0.00747965  0.34517091  0.72464117     1.01750
O2208       O  0.02450092  0.35236350  0.70759367    -0.78720
O2209       O  0.04688257  0.37605408  0.66137731    -0.78870
C2210       C  0.04204887  0.39774437  0.66985671     1.01710
Cr2211     Cr  0.99636297  0.39026372  0.63912696     1.93740
Cr2212     Cr  0.96852561  0.35144351  0.67590452     1.93210
Cr2213     Cr  0.02442649  0.34640487  0.66494746     1.39100
O2214       O  0.99642917  0.36310687  0.66074814    -1.23960
O2215       O  0.01464957  0.38265177  0.86224236    -0.86210
O2216       O  0.96595558  0.37820339  0.87009855    -0.83250
C2217       C  0.94462683  0.37595770  0.88064722     0.97250
O2218       O  0.94232847  0.36556950  0.90634312    -0.83290
O2219       O  0.97098058  0.32042715  0.90693021    -0.85930
C2220       C  0.98965975  0.30621176  0.90808964     1.01780
O2221       O  0.00980265  0.31444169  0.91877380    -0.78690
O2222       O  0.02108163  0.34333075  0.87088996    -0.78880
C2223       C  0.01770137  0.36089155  0.85267538     1.01730
O2224       O  0.01799983  0.40666596  0.92099954    -0.86210
O2225       O  0.96655245  0.40487201  0.92616873    -0.83270
C2226       C  0.96048035  0.39750690  0.95243598     0.97270
O2227       O  0.96756286  0.37679988  0.96165889    -0.83300
O2228       O  0.99191868  0.33354629  0.96501427    -0.85900
C2229       C  0.01253697  0.34144715  0.97540321     1.01750
O2230       O  0.02753073  0.35201299  0.95785755    -0.78720
O2231       O  0.04520302  0.37889154  0.90909142    -0.78870
C2232       C  0.04041014  0.40035342  0.91818240     1.01710
Cr2233     Cr  0.99167379  0.39157326  0.89622923     1.93740
Cr2234     Cr  0.96979487  0.34962611  0.93337950     1.93210
Cr2235     Cr  0.02417159  0.34821009  0.91424269     1.39100
O2236       O  0.99516429  0.36328992  0.91476098    -1.23960
O2237       O  0.83991082  0.52577867  0.99604176    -0.86210
O2238       O  0.81231573  0.50977135  0.54380028    -0.83250
C2239       C  0.80675401  0.48882607  0.53340889     0.97250
O2240       O  0.82257415  0.47173063  0.53394621    -0.83290
O2241       O  0.86946326  0.44878996  0.52906694    -0.85930
C2242       C  0.87920527  0.45374224  0.00371499     1.01780
O2243       O  0.87589003  0.47487043  0.99340729    -0.78690
O2244       O  0.87964856  0.52437931  0.98830296    -0.78880
C2245       C  0.85770795  0.52652698  0.97786265     1.01730
O2246       O  0.87509317  0.55032536  0.53705462    -0.86210
O2247       O  0.85017848  0.52977440  0.58353093    -0.83270
C2248       C  0.84523587  0.51303032  0.60223024     0.97270
O2249       O  0.83797444  0.49193716  0.59329055    -0.83300
O2250       O  0.88324407  0.47158333  0.58405783    -0.85900
C2251       C  0.90233802  0.46371994  0.57144918     1.01750
O2252       O  0.90806780  0.47313130  0.54610251    -0.78720
O2253       O  0.90640043  0.52477982  0.54466894    -0.78870
C2254       C  0.89762672  0.54632728  0.54493464     1.01710
Cr2255     Cr  0.84541325  0.52719352  0.54010700     1.93740
Cr2256     Cr  0.85329695  0.47288737  0.55870230     1.93210
Cr2257     Cr  0.89100800  0.49947213  0.51951528     1.39100
O2258       O  0.86344811  0.50000558  0.54007614    -1.23960
O2259       O  0.84457339  0.52732717  0.74583205    -0.86210
O2260       O  0.81462168  0.51010241  0.79093616    -0.83250
C2261       C  0.80855443  0.48983810  0.77910213     0.97250
O2262       O  0.82404832  0.47260094  0.77736605    -0.83290
O2263       O  0.87060791  0.44859358  0.77137579    -0.85930
C2264       C  0.87951990  0.45574343  0.74607336     1.01780
O2265       O  0.87787687  0.47781482  0.73976663    -0.78690
O2266       O  0.88457447  0.52565034  0.74022736    -0.78880
C2267       C  0.86302380  0.52883056  0.72873258     1.01730
O2268       O  0.87927033  0.54824029  0.78991910    -0.86210
O2269       O  0.85133816  0.52663802  0.83338869    -0.83270
C2270       C  0.84474507  0.50927128  0.85040899     0.97270
O2271       O  0.83760162  0.48866064  0.83944218    -0.83300
O2272       O  0.88161590  0.46724043  0.83122580    -0.85900
C2273       C  0.90162196  0.45964745  0.82078399     1.01750
O2274       O  0.90856187  0.46868472  0.79543498    -0.78720
O2275       O  0.90848084  0.52067717  0.79877387    -0.78870
C2276       C  0.90118035  0.54275058  0.79907789     1.01710
Cr2277     Cr  0.84839566  0.52643318  0.78991153     1.93740
Cr2278     Cr  0.85361629  0.47099347  0.80363459     1.93210
Cr2279     Cr  0.89352310  0.49820260  0.76994253     1.39100
O2280       O  0.86533492  0.49872302  0.78868906    -1.23960
O2281       O  0.12926893  0.49083282  0.77217916    -0.86210
O2282       O  0.13258069  0.53856392  0.76455555    -0.83250
C2283       C  0.12994938  0.56007891  0.75618769     0.97250
O2284       O  0.13954912  0.56603528  0.73114403    -0.83290
O2285       O  0.18759618  0.54349082  0.73020761    -0.85930
C2286       C  0.20380428  0.52669176  0.73121841     1.01780
O2287       O  0.19892891  0.50554786  0.72087124    -0.78690
O2288       O  0.16943701  0.48881456  0.76617218    -0.78880
C2289       C  0.15105012  0.48955107  0.78343611     1.01730
O2290       O  0.10506169  0.48835805  0.71368683    -0.86210
O2291       O  0.10248424  0.53988887  0.71029057    -0.83270
C2292       C  0.10941259  0.54920264  0.68531656     0.97270
O2293       O  0.13003341  0.54269416  0.67523116    -0.83300
O2294       O  0.17596088  0.52327080  0.67029159    -0.85900
C2295       C  0.16911150  0.50235094  0.66045844     1.01750
O2296       O  0.16343015  0.48522847  0.67837904    -0.78720
O2297       O  0.13673656  0.46369751  0.72334239    -0.78870
C2298       C  0.11429743  0.46704480  0.71464996     1.01710
Cr2299     Cr  0.11884674  0.51430717  0.73874595     1.93740
Cr2300     Cr  0.15813745  0.54194879  0.70314493     1.93210
Cr2301     Cr  0.16602839  0.48747350  0.72199233     1.39100
O2302       O  0.14745653  0.51433514  0.72054258    -1.23960
O2303       O  0.13143214  0.48996407  0.52424648    -0.86210
O2304       O  0.13866353  0.53906474  0.52205697    -0.83250
C2305       C  0.13599055  0.56064961  0.51330444     0.97250
O2306       O  0.14588976  0.56625051  0.98817183    -0.83290
O2307       O  0.19140866  0.54028171  0.98085135    -0.85930
C2308       C  0.20635538  0.52253051  0.97918517     1.01780
O2309       O  0.19909434  0.50212793  0.96862267    -0.78690
O2310       O  0.17086234  0.48663575  0.51558038    -0.78880
C2311       C  0.15340483  0.48637877  0.53405899     1.01730
O2312       O  0.10401150  0.49380722  0.96847040    -0.86210
O2313       O  0.10565939  0.54553831  0.96961356    -0.83270
C2314       C  0.11195668  0.55507585  0.94442902     0.97270
O2315       O  0.13081890  0.54654885  0.93217465    -0.83300
O2316       O  0.17389581  0.52308194  0.92097504    -0.85900
C2317       C  0.16622392  0.50230840  0.91113582     1.01750
O2318       O  0.15981503  0.48548497  0.92884167    -0.78720
O2319       O  0.13333796  0.46624118  0.97376994    -0.78870
C2320       C  0.11141831  0.47203949  0.96497936     1.01710
Cr2321     Cr  0.12133052  0.51688020  0.99481144     1.93740
Cr2322     Cr  0.16043457  0.54216981  0.95685423     1.93210
Cr2323     Cr  0.16476929  0.48692173  0.97196267     1.39100
O2324       O  0.14856634  0.51518348  0.97374181    -1.23960
O2325       O  0.98965160  0.67022061  0.64183244    -0.86210
O2326       O  0.00426534  0.70129902  0.59679075    -0.83250
C2327       C  0.02560177  0.70696228  0.60688267     0.97250
O2328       O  0.04319166  0.69166595  0.60665772    -0.83290
O2329       O  0.06770776  0.64604141  0.60889550    -0.85930
C2330       C  0.06369046  0.63599046  0.63445287     1.01780
O2331       O  0.04173200  0.63498386  0.64353420    -0.78690
O2332       O  0.99161630  0.63060049  0.64652042    -0.78880
C2333       C  0.98934314  0.65146697  0.65857499     1.01730
O2334       O  0.96550137  0.63792988  0.59768135    -0.86210
O2335       O  0.98506332  0.66669177  0.55439107    -0.83270
C2336       C  0.00135698  0.67409234  0.53651542     0.97270
O2337       O  0.02266921  0.68033599  0.54679929    -0.83300
O2338       O  0.04437184  0.63570290  0.55172238    -0.85900
C2339       C  0.05174176  0.61547575  0.56213942     1.01750
O2340       O  0.04414672  0.60846116  0.58790354    -0.78720
O2341       O  0.99219663  0.60858959  0.58794036    -0.78870
C2342       C  0.97023537  0.61679328  0.58710581     1.01710
Cr2343     Cr  0.98787096  0.66799300  0.59778146     1.93740
Cr2344     Cr  0.04268120  0.66306928  0.57985592     1.93210
Cr2345     Cr  0.01723513  0.62229228  0.61523127     1.39100
O2346       O  0.01586349  0.65102595  0.59716040    -1.23960
O2347       O  0.98765145  0.67355930  0.88908490    -0.86210
O2348       O  0.00104812  0.70010967  0.83918610    -0.83250
C2349       C  0.02002072  0.70913754  0.85193003     0.97250
O2350       O  0.03904573  0.69578701  0.85614525    -0.83290
O2351       O  0.06870939  0.65196911  0.86699556    -0.85930
C2352       C  0.06353626  0.64260072  0.89267373     1.01780
O2353       O  0.04133455  0.64283833  0.89977627    -0.78690
O2354       O  0.99298044  0.63505411  0.90185692    -0.78880
C2355       C  0.98968603  0.65728310  0.90921323     1.01730
O2356       O  0.96782534  0.63452579  0.85097138    -0.86210
O2357       O  0.98771747  0.65889080  0.80309907    -0.83270
C2358       C  0.00449852  0.66674042  0.78590243     0.97270
O2359       O  0.02434268  0.67654001  0.79655874    -0.83300
O2360       O  0.05015684  0.63576356  0.81057055    -0.85900
C2361       C  0.05757550  0.61654821  0.82346603     1.01750
O2362       O  0.04861385  0.61052083  0.84896572    -0.78720
O2363       O  0.99658639  0.60638526  0.84763165    -0.78870
C2364       C  0.97408205  0.61262024  0.84482043     1.01710
Cr2365     Cr  0.98775277  0.66584287  0.84596329     1.93740
Cr2366     Cr  0.04375513  0.66477405  0.83396964     1.93210
Cr2367     Cr  0.01969398  0.62503482  0.87298352     1.39100
O2368       O  0.01700192  0.65147245  0.85020820    -1.23960
C2369       C  0.01180000  0.68507453  0.98252689    -0.02710
C2370       C  0.99550906  0.67392719  0.50347298     0.06970
C2371       C  0.97463813  0.66038848  0.99213140    -0.02820
C2372       C  0.97284097  0.65489112  0.96134617    -0.02820
C2373       C  0.99021888  0.66452811  0.94113318     0.07110
C2374       C  0.00885640  0.68068868  0.95164710    -0.03020
Br2375     Br  0.03212264  0.69567512  0.92440999    -0.01570
Br2376     Br  0.03830385  0.70687155  0.99497267    -0.01640
Br2377     Br  0.94626386  0.63429888  0.94643223    -0.01600
Br2378     Br  0.94725738  0.64954540  0.51708098    -0.01580
C2379       C  0.00220056  0.63935662  0.74162887    -0.02710
C2380       C  0.00051732  0.66327428  0.75327528     0.06970
C2381       C  0.99038238  0.68218436  0.73518859    -0.02820
C2382       C  0.98369505  0.67760425  0.70500558    -0.02820
C2383       C  0.98858847  0.65425631  0.69206290     0.07110
C2384       C  0.99620702  0.63467146  0.71142023    -0.03020
Br2385     Br  0.99825803  0.60092008  0.69799307    -0.01570
Br2386     Br  0.01312457  0.61261607  0.76710878    -0.01640
Br2387     Br  0.96604703  0.70312693  0.68279011    -0.01600
Br2388     Br  0.98509115  0.71419322  0.75228554    -0.01580
C2389       C  0.07843078  0.58837847  0.94403885    -0.02710
C2390       C  0.10038676  0.57854207  0.93160629     0.06970
C2391       C  0.11301877  0.59330703  0.90944371    -0.02820
C2392       C  0.10252773  0.61573577  0.89841620    -0.02820
C2393       C  0.08006870  0.62479869  0.91020176     0.07110
C2394       C  0.06994456  0.61208163  0.93551158    -0.03020
Br2395     Br  0.04522594  0.62734655  0.96067465    -0.01570
Br2396     Br  0.05793849  0.56910034  0.97101558    -0.01640
Br2397     Br  0.12009978  0.63480496  0.86841741    -0.01600
Br2398     Br  0.14520204  0.58426810  0.89340579    -0.01580
C2399       C  0.07297155  0.57600729  0.54965954    -0.02710
C2400       C  0.07180823  0.60165874  0.54642498     0.06970
C2401       C  0.09149848  0.61407800  0.53123880    -0.02820
C2402       C  0.11270824  0.60098033  0.52133303    -0.02820
C2403       C  0.11465926  0.57529373  0.52612034     0.07110
C2404       C  0.09410873  0.56294058  0.54018052    -0.03020
Br2405     Br  0.09252007  0.52772363  0.54617741    -0.01570
Br2406     Br  0.04428921  0.55828646  0.56510522    -0.01640
Br2407     Br  0.13971644  0.61883131  0.50270176    -0.01600
Br2408     Br  0.09100615  0.64944664  0.52549765    -0.01580
C2409       C  0.08118255  0.58666495  0.68870862    -0.02710
C2410       C  0.09696418  0.57154555  0.67132049     0.06970
C2411       C  0.10558189  0.58132483  0.64333877    -0.02820
C2412       C  0.09896264  0.60540553  0.63377918    -0.02820
C2413       C  0.08200745  0.61943618  0.65035085     0.07110
C2414       C  0.07573877  0.61095066  0.67932703    -0.03020
Br2415     Br  0.06105805  0.63375158  0.70694301    -0.01570
Br2416     Br  0.06413069  0.57436205  0.72375188    -0.01640
Br2417     Br  0.11568565  0.62029682  0.60009827    -0.01600
Br2418     Br  0.12465714  0.56160288  0.61580902    -0.01580
C2419       C  0.17209212  0.47522230  0.83254064    -0.02710
C2420       C  0.15498912  0.49064791  0.81661149     0.06970
C2421       C  0.14367596  0.50976854  0.83255481    -0.02820
C2422       C  0.14299199  0.50824886  0.86331230    -0.02820
C2423       C  0.16312717  0.49757599  0.87874991     0.07110
C2424       C  0.17756849  0.48007825  0.86325362    -0.03020
Br2425     Br  0.20388047  0.46261734  0.88401461    -0.01570
Br2426     Br  0.18892492  0.44897737  0.81229696    -0.01640
Br2427     Br  0.11317844  0.51959778  0.88146768    -0.01600
Br2428     Br  0.15133107  0.54320058  0.82270872    -0.01580
C2429       C  0.13871068  0.48338161  0.58741933    -0.02710
C2430       C  0.15869325  0.48454258  0.56711051     0.06970
C2431       C  0.18315778  0.48798360  0.57891600    -0.02820
C2432       C  0.18661008  0.49514863  0.60907442    -0.02820
C2433       C  0.16595687  0.49752265  0.62800698     0.07110
C2434       C  0.14206559  0.49100599  0.61716022    -0.03020
Br2435     Br  0.11316311  0.49353009  0.64235358    -0.01570
Br2436     Br  0.10754854  0.46806419  0.57613268    -0.01640
Br2437     Br  0.21961090  0.50108598  0.62484392    -0.01600
Br2438     Br  0.21229281  0.47980678  0.55582544    -0.01580
C2439       C  0.11343099  0.60117929  0.77409005    -0.02710
C2440       C  0.11233193  0.57534829  0.77397555     0.06970
C2441       C  0.09378794  0.56326311  0.79181542    -0.02820
C2442       C  0.07837183  0.57663532  0.81092236    -0.02820
C2443       C  0.07774897  0.60237551  0.80873402     0.07110
C2444       C  0.09588643  0.61468340  0.79071653    -0.03020
Br2445     Br  0.09845225  0.65022498  0.78996079    -0.01570
Br2446     Br  0.13891426  0.61823880  0.75168659    -0.01640
Br2447     Br  0.05834861  0.55898557  0.84003241    -0.01600
Br2448     Br  0.08563176  0.52865032  0.78787791    -0.01580
C2449       C  0.91144339  0.58104894  0.82842261    -0.02710
C2450       C  0.91894864  0.56187315  0.80940794     0.06970
C2451       C  0.94439043  0.55931773  0.80251384    -0.02820
C2452       C  0.96236092  0.57406254  0.81649396    -0.02820
C2453       C  0.95505758  0.59441496  0.83412311     0.07110
C2454       C  0.92925990  0.59753180  0.84023151    -0.03020
Br2455     Br  0.91774072  0.62270227  0.86714015    -0.01570
Br2456     Br  0.87689304  0.58427635  0.83968588    -0.01640
Br2457     Br  0.99665155  0.56391787  0.81227618    -0.01600
Br2458     Br  0.95503491  0.53670248  0.77188357    -0.01580
C2459       C  0.90868010  0.58246304  0.57739122    -0.02710
C2460       C  0.91443918  0.56682781  0.55333095     0.06970
C2461       C  0.93752548  0.56943597  0.53872690    -0.02820
C2462       C  0.95507697  0.58673972  0.54875493    -0.02820
C2463       C  0.95018523  0.60103621  0.57441379     0.07110
C2464       C  0.92664546  0.59912667  0.58832804    -0.03020
Br2465     Br  0.91938577  0.61761698  0.62398701    -0.01570
Br2466     Br  0.87673655  0.58027634  0.59672430    -0.01640
Br2467     Br  0.98546530  0.59125508  0.52616478    -0.01600
Br2468     Br  0.94515663  0.54949355  0.50439788    -0.01580
C2469       C  0.87361345  0.52835960  0.92463158    -0.02710
C2470       C  0.85320696  0.52758697  0.94444276     0.06970
C2471       C  0.82902720  0.52474960  0.93172917    -0.02820
C2472       C  0.82614673  0.51753436  0.90142619    -0.02820
C2473       C  0.84715728  0.51387826  0.88325524     0.07110
C2474       C  0.87079855  0.52067168  0.89476049    -0.03020
Br2475     Br  0.89991239  0.52007375  0.86964321    -0.01570
Br2476     Br  0.90453964  0.54386487  0.93634074    -0.01640
Br2477     Br  0.79342258  0.51505371  0.88402889    -0.01600
Br2478     Br  0.79972091  0.53431618  0.95371413    -0.01580
C2479       C  0.87424388  0.52114342  0.64528793    -0.02710
C2480       C  0.84952436  0.51857089  0.63450253     0.06970
C2481       C  0.82989273  0.52639152  0.65280984    -0.02820
C2482       C  0.83462329  0.53338381  0.68282031    -0.02820
C2483       C  0.85903977  0.53136757  0.69528169     0.07110
C2484       C  0.87899195  0.52808348  0.67519548    -0.03020
Br2485     Br  0.91265740  0.53650597  0.68669904    -0.01570
Br2486     Br  0.90207638  0.51603122  0.61896917    -0.01640
Br2487     Br  0.80791861  0.54822517  0.70524184    -0.01600
Br2488     Br  0.79674025  0.52876958  0.63616619    -0.01580
C2489       C  0.05591189  0.44386146  0.92234021    -0.02710
C2490       C  0.06060160  0.41838404  0.92552825     0.06970
C2491       C  0.08385252  0.41074164  0.93754429    -0.02820
C2492       C  0.09976767  0.42780110  0.95175084    -0.02820
C2493       C  0.09420221  0.45344264  0.95085996     0.07110
C2494       C  0.07234659  0.46125165  0.93483922    -0.03020
Br2495     Br  0.06368853  0.49567352  0.92885862    -0.01570
Br2496     Br  0.02823946  0.45534323  0.89753312    -0.01640
Br2497     Br  0.12807654  0.41463379  0.97397056    -0.01600
Br2498     Br  0.09548267  0.37739936  0.93248458    -0.01580
C2499       C  0.94185737  0.43752421  0.96758837    -0.02710
C2500       C  0.94249683  0.41185348  0.97074130     0.06970
C2501       C  0.92358348  0.39996041  0.98784840    -0.02820
C2502       C  0.90273674  0.41338970  0.99803800    -0.02820
C2503       C  0.90064211  0.43890215  0.99189301     0.07110
C2504       C  0.92114815  0.45097001  0.97751031    -0.03020
Br2505     Br  0.92308087  0.48622319  0.97171884    -0.01570
Br2506     Br  0.97056984  0.45457290  0.95132992    -0.01640
Br2507     Br  0.87640353  0.39609045  0.51881063    -0.01600
Br2508     Br  0.92459645  0.36491518  0.99610144    -0.01580
C2509       C  0.91269590  0.40944947  0.88097177    -0.02710
C2510       C  0.92478082  0.39086972  0.86506178     0.06970
C2511       C  0.92709018  0.39424883  0.83390650    -0.02820
C2512       C  0.92303710  0.41747711  0.82015802    -0.02820
C2513       C  0.91315237  0.43737684  0.83655354     0.07110
C2514       C  0.90813147  0.43281012  0.86756969    -0.03020
Br2515     Br  0.89728601  0.45876024  0.89352039    -0.01570
Br2516     Br  0.89892296  0.40152801  0.91945172    -0.01640
Br2517     Br  0.93386640  0.42136825  0.77982172    -0.01600
Br2518     Br  0.93431473  0.36593026  0.81003187    -0.01580
C2519       C  0.08611140  0.41432594  0.67095124    -0.02710
C2520       C  0.06187795  0.41339322  0.68326838     0.06970
C2521       C  0.05658205  0.42759339  0.70885176    -0.02820
C2522       C  0.07453056  0.44389178  0.72030232    -0.02820
C2523       C  0.09796873  0.44619449  0.70648358     0.07110
C2524       C  0.10413783  0.43051445  0.68271175    -0.03020
Br2525     Br  0.13688826  0.43189927  0.66519871    -0.01570
Br2526     Br  0.09456805  0.39486826  0.63663534    -0.01640
Br2527     Br  0.06733225  0.46257380  0.75584391    -0.01600
Br2528     Br  0.02520169  0.42406133  0.72951771    -0.01580
C2529       C  0.91342182  0.40313044  0.70730490    -0.02710
C2530       C  0.93619746  0.41470040  0.69898808     0.06970
C2531       C  0.93913410  0.43989865  0.70365196    -0.02820
C2532       C  0.92065496  0.45304611  0.71888239    -0.02820
C2533       C  0.89780082  0.44154613  0.72780323     0.07110
C2534       C  0.89392861  0.41685024  0.72029131    -0.03020
Br2535     Br  0.86176651  0.40221432  0.72707715    -0.01570
Br2536     Br  0.90879468  0.36823746  0.70233664    -0.01640
Br2537     Br  0.92990716  0.48559778  0.73132200    -0.01600
Br2538     Br  0.97006983  0.45583378  0.69252709    -0.01580
C2539       C  0.99552235  0.33490725  0.77838387    -0.02710
C2540       C  0.01215427  0.34610774  0.75789443     0.06970
C2541       C  0.03293179  0.35949575  0.76981082    -0.02820
C2542       C  0.03404003  0.36526417  0.80054155    -0.02820
C2543       C  0.01638857  0.35550923  0.82026965     0.07110
C2544       C  0.99813106  0.33916023  0.80934760    -0.03020
Br2545     Br  0.97630029  0.32236042  0.83668871    -0.01570
Br2546     Br  0.97004456  0.31214481  0.76524817    -0.01640
Br2547     Br  0.06063332  0.38545660  0.81628256    -0.01600
Br2548     Br  0.06181488  0.36837727  0.74621618    -0.01580
C2549       C  0.04236631  0.35586323  0.55078930    -0.02710
C2550       C  0.02298963  0.34960891  0.57028643     0.06970
C2551       C  0.00286179  0.33539797  0.55940048    -0.02820
C2552       C  0.00048925  0.33037122  0.52866560    -0.02820
C2553       C  0.01835722  0.33963213  0.50828194     0.07110
C2554       C  0.04064695  0.34982440  0.52021563    -0.03020
Br2555     Br  0.07034332  0.35254965  0.99657262    -0.01570
Br2556     Br  0.07175140  0.37175906  0.56625863    -0.01640
Br2557     Br  0.97319057  0.30948393  0.51584573    -0.01600
Br2558     Br  0.97737940  0.32329568  0.58571963    -0.01580
C2559       C  0.90060710  0.42238689  0.59970149    -0.02710
C2560       C  0.91435316  0.44016573  0.58252684     0.06970
C2561       C  0.93786914  0.43305050  0.57148638    -0.02820
C2562       C  0.94738032  0.40933337  0.57769132    -0.02820
C2563       C  0.93573075  0.39356077  0.59915816     0.07110
C2564       C  0.91133950  0.39936051  0.60776128    -0.03020
Br2565     Br  0.89134955  0.37411478  0.62641963    -0.01570
Br2566     Br  0.86658294  0.42802363  0.61204714    -0.01640
Br2567     Br  0.97527627  0.39821879  0.55397327    -0.01600
Br2568     Br  0.95859720  0.45597240  0.54935608    -0.01580
C2569       C  0.54266043  0.65902404  0.79564454    -0.02710
C2570       C  0.52181110  0.65868404  0.81447782     0.06970
C2571       C  0.49892188  0.66777801  0.80288404    -0.02820
C2572       C  0.49559079  0.67250125  0.77197095    -0.02820
C2573       C  0.51609419  0.67084532  0.75231906     0.07110
C2574       C  0.54011472  0.66637361  0.76516464    -0.03020
Br2575     Br  0.57005543  0.67246286  0.74239305    -0.01570
Br2576     Br  0.57495602  0.65094978  0.81223103    -0.01640
Br2577     Br  0.46251109  0.68159335  0.75796111    -0.01600
Br2578     Br  0.47233768  0.67648818  0.82919795    -0.01580
C2579       C  0.54259525  0.65476256  0.54471752    -0.02710
C2580       C  0.52293849  0.66032234  0.56399284     0.06970
C2581       C  0.50279037  0.67474575  0.55286738    -0.02820
C2582       C  0.50094088  0.68118947  0.52222248    -0.02820
C2583       C  0.51936105  0.67327449  0.50199475     0.07110
C2584       C  0.54139225  0.66194659  0.51415492    -0.03020
Br2585     Br  0.57132523  0.65767445  0.99072924    -0.01570
Br2586     Br  0.57173644  0.63821741  0.56075506    -0.01640
Br2587     Br  0.47359180  0.70227186  0.50921739    -0.01600
Br2588     Br  0.47690404  0.68584128  0.57898791    -0.01580
C2589       C  0.25926277  0.52312909  0.78417307    -0.02710
C2590       C  0.27794508  0.53449280  0.76691048     0.06970
C2591       C  0.27048752  0.54911002  0.74176819    -0.02820
C2592       C  0.24654598  0.54582307  0.72902818    -0.02820
C2593       C  0.22874500  0.53161860  0.74444328     0.07110
C2594       C  0.23462205  0.52307961  0.77360094    -0.03020
Br2595     Br  0.20891557  0.51536538  0.80113632    -0.01570
Br2596     Br  0.26665780  0.51009292  0.82400971    -0.01640
Br2597     Br  0.23811590  0.56089324  0.69086107    -0.01600
Br2598     Br  0.28983349  0.57701125  0.72876677    -0.01580
C2599       C  0.41340384  0.61320391  0.85503298    -0.02710
C2600       C  0.43848441  0.60981990  0.86325180     0.06970
C2601       C  0.45008882  0.58658396  0.85725387    -0.02820
C2602       C  0.43680748  0.56761364  0.84315393    -0.02820
C2603       C  0.41231540  0.57157595  0.83355529     0.07110
C2604       C  0.40047258  0.59439969  0.83978476    -0.03020
Br2605     Br  0.36692440  0.60100900  0.82592299    -0.01570
Br2606     Br  0.39734543  0.64423338  0.86278982    -0.01640
Br2607     Br  0.45169573  0.53544978  0.83801406    -0.01600
Br2608     Br  0.48442673  0.57926308  0.86748934    -0.01580
C2609       C  0.40017704  0.60136431  0.72818844    -0.02710
C2610       C  0.40178134  0.57572112  0.73212581     0.06970
C2611       C  0.42437884  0.56344578  0.72414147    -0.02820
C2612       C  0.44441058  0.57659597  0.71185491    -0.02820
C2613       C  0.44237744  0.60194183  0.70703011     0.07110
C2614       C  0.42039865  0.61449811  0.71585731    -0.03020
Br2615     Br  0.41706192  0.64967467  0.71032475    -0.01570
Br2616     Br  0.36970813  0.61832976  0.73786582    -0.01640
Br2617     Br  0.47563873  0.56018364  0.70333667    -0.01600
Br2618     Br  0.42977966  0.52859637  0.73037645    -0.01580
C2619       C  0.25238975  0.52129337  0.96960061    -0.02710
C2620       C  0.23255706  0.52578946  0.98934755     0.06970
C2621       C  0.23793637  0.53377275  0.51881350    -0.02820
C2622       C  0.26276134  0.53377483  0.52955026    -0.02820
C2623       C  0.28250687  0.52788804  0.51026317     0.07110
C2624       C  0.27722686  0.52325898  0.97981897    -0.03020
Br2625     Br  0.30397080  0.52095042  0.95175538    -0.01570
Br2626     Br  0.24560879  0.51370268  0.92809361    -0.01640
Br2627     Br  0.26973743  0.54169353  0.57074552    -0.01600
Br2628     Br  0.21146693  0.54450653  0.54477320    -0.01580
C2629       C  0.43780787  0.57601820  0.57924047    -0.02710
C2630       C  0.41339862  0.57010063  0.58809103     0.06970
C2631       C  0.40051200  0.58734466  0.60637299    -0.02820
C2632       C  0.41203408  0.60969828  0.61516937    -0.02820
C2633       C  0.43614227  0.61582052  0.60509437     0.07110
C2634       C  0.44770602  0.59949297  0.58451195    -0.03020
Br2635     Br  0.47582661  0.60905355  0.55984560    -0.01570
Br2636     Br  0.45939320  0.55126187  0.56246850    -0.01640
Br2637     Br  0.39334677  0.63320652  0.63799791    -0.01600
Br2638     Br  0.36701975  0.58126479  0.62023155    -0.01580
C2639       C  0.35406777  0.52141309  0.89536332    -0.02710
C2640       C  0.33988939  0.50435871  0.87920346     0.06970
C2641       C  0.33397956  0.48173183  0.89360273    -0.02820
C2642       C  0.34265707  0.47656823  0.92328716    -0.02820
C2643       C  0.35968386  0.49264468  0.93753859     0.07110
C2644       C  0.36688643  0.51400450  0.92145241    -0.03020
Br2645     Br  0.39720338  0.53102482  0.92974473    -0.01570
Br2646     Br  0.35345406  0.55593080  0.88530408    -0.01640
Br2647     Br  0.33239758  0.44684521  0.94369667    -0.01600
Br2648     Br  0.31181981  0.45912756  0.87387096    -0.01580
C2649       C  0.35933649  0.47147392  0.67149088    -0.02710
C2650       C  0.35310418  0.49082730  0.69064415     0.06970
C2651       C  0.33986746  0.51108944  0.67841025    -0.02820
C2652       C  0.33373976  0.51282021  0.64766393    -0.02820
C2653       C  0.34190382  0.49459600  0.62759489     0.07110
C2654       C  0.35313236  0.47285890  0.64039005    -0.03020
Br2655     Br  0.35815542  0.44354370  0.61700531    -0.01570
Br2656     Br  0.37595589  0.44288492  0.68827047    -0.01640
Br2657     Br  0.31232104  0.53970843  0.63463946    -0.01600
Br2658     Br  0.33107505  0.53782903  0.70342472    -0.01580
C2659       C  0.40463106  0.60259220  0.98699561    -0.02710
C2660       C  0.40589167  0.57691567  0.99099339     0.06970
C2661       C  0.42878290  0.56465853  0.98369205    -0.02820
C2662       C  0.44872377  0.57761386  0.97064091    -0.02820
C2663       C  0.44664140  0.60283204  0.96470329     0.07110
C2664       C  0.42474986  0.61551235  0.97381503    -0.03020
Br2665     Br  0.42103779  0.65050298  0.96675099    -0.01570
Br2666     Br  0.37474176  0.61993820  0.99804506    -0.01640
Br2667     Br  0.47972104  0.56092694  0.96179718    -0.01600
Br2668     Br  0.43495189  0.53004656  0.99136031    -0.01580
C2669       C  0.73642170  0.48483566  0.52593371    -0.02710
C2670       C  0.73333087  0.48341773  0.99457867     0.06970
C2671       C  0.75442708  0.47964056  0.97659615    -0.02820
C2672       C  0.77845056  0.47894721  0.98984637    -0.02820
C2673       C  0.78156666  0.48444249  0.52060507     0.07110
C2674       C  0.76039332  0.48632925  0.53881825    -0.03020
Br2675     Br  0.76423870  0.48965488  0.58163851    -0.01570
Br2676     Br  0.70787344  0.48381612  0.55134555    -0.01640
Br2677     Br  0.80689393  0.47012933  0.96600838    -0.01600
Br2678     Br  0.75024133  0.47517478  0.93401260    -0.01580
C2679       C  0.60881998  0.58255033  0.92999313    -0.02710
C2680       C  0.60309900  0.56810082  0.95558302     0.06970
C2681       C  0.58139431  0.57316428  0.97187975    -0.02820
C2682       C  0.56442879  0.59105825  0.96128183    -0.02820
C2683       C  0.56866555  0.60350059  0.93364963     0.07110
C2684       C  0.59136291  0.59976317  0.91857220    -0.03020
Br2685     Br  0.59785654  0.61633053  0.88087759    -0.01570
Br2686     Br  0.64014788  0.57846638  0.90986411    -0.01640
Br2687     Br  0.53559904  0.59867189  0.98526146    -0.01600
Br2688     Br  0.57523550  0.55587583  0.50925900    -0.01580
C2689       C  0.73855767  0.48256542  0.77528335    -0.02710
C2690       C  0.73434235  0.48679927  0.74438031     0.06970
C2691       C  0.75460757  0.48774601  0.72452306    -0.02820
C2692       C  0.77904638  0.48627271  0.73593524    -0.02820
C2693       C  0.78318836  0.48636374  0.76718026     0.07110
C2694       C  0.76301092  0.48303088  0.78676329    -0.03020
Br2695     Br  0.76903792  0.47705765  0.82881326    -0.01570
Br2696     Br  0.71099624  0.47601430  0.80179467    -0.01640
Br2697     Br  0.80661841  0.48213741  0.70903873    -0.01600
Br2698     Br  0.74883275  0.49006359  0.68174618    -0.01580
C2699       C  0.58713941  0.57792704  0.71827777    -0.02710
C2700       C  0.60048576  0.56337946  0.69801626     0.06970
C2701       C  0.59550947  0.56546972  0.66694973    -0.02820
C2702       C  0.57771358  0.58257228  0.65616830    -0.02820
C2703       C  0.56418660  0.59692396  0.67650091     0.07110
C2704       C  0.56832502  0.59388249  0.70760032    -0.03020
Br2705     Br  0.54653715  0.60950743  0.73567492    -0.01570
Br2706     Br  0.59379639  0.57515577  0.76080529    -0.01640
Br2707     Br  0.57044186  0.58499150  0.61378749    -0.01600
Br2708     Br  0.61250213  0.54434160  0.63929702    -0.01580
C2709       C  0.63817926  0.52559300  0.83584334    -0.02710
C2710       C  0.65812510  0.52864054  0.81543041     0.06970
C2711       C  0.68274924  0.53009217  0.82772787    -0.02820
C2712       C  0.68749760  0.52369364  0.85819061    -0.02820
C2713       C  0.66776543  0.51792587  0.87751213     0.07110
C2714       C  0.64305839  0.52053409  0.86653678    -0.03020
Br2715     Br  0.61524078  0.51697830  0.89332229    -0.01570
Br2716     Br  0.60371476  0.52863014  0.82303326    -0.01640
Br2717     Br  0.72103198  0.52377260  0.87406973    -0.01600
Br2718     Br  0.71020770  0.54302970  0.80449144    -0.01580
C2719       C  0.67701942  0.53770989  0.61322325    -0.02710
C2720       C  0.67551121  0.51411459  0.62736218     0.06970
C2721       C  0.66683932  0.49458716  0.61006436    -0.02820
C2722       C  0.65396203  0.49935767  0.58334579    -0.02820
C2723       C  0.65762511  0.52161716  0.56734540     0.07110
C2724       C  0.66990336  0.54082388  0.58252657    -0.03020
Br2725     Br  0.67425487  0.57199764  0.56223156    -0.01570
Br2726     Br  0.68982258  0.56541345  0.63500311    -0.01640
Br2727     Br  0.62622397  0.47832595  0.57650547    -0.01600
Br2728     Br  0.67405363  0.46090371  0.62029805    -0.01580
C2729       C  0.45501902  0.43511965  0.80673120    -0.02710
C2730       C  0.44974473  0.41977621  0.83187261     0.06970
C2731       C  0.42534259  0.41980590  0.84377895    -0.02820
C2732       C  0.40672243  0.43530299  0.83111627    -0.02820
C2733       C  0.41207853  0.45037790  0.80600264     0.07110
C2734       C  0.43600593  0.44935920  0.79323233    -0.03020
Br2735     Br  0.44244627  0.46651670  0.75584136    -0.01570
Br2736     Br  0.48802809  0.43646251  0.78933408    -0.01640
Br2737     Br  0.37434874  0.43686300  0.84928979    -0.01600
Br2738     Br  0.41771828  0.40047071  0.87917828    -0.01580
C2739       C  0.58334252  0.40940795  0.77465292    -0.02710
C2740       C  0.57318288  0.41811302  0.80215076     0.06970
C2741       C  0.58697785  0.43612160  0.81791597    -0.02820
C2742       C  0.61057880  0.44380487  0.80756364    -0.02820
C2743       C  0.61997029  0.43603301  0.77961087     0.07110
C2744       C  0.60711384  0.41711824  0.76485590    -0.03020
Br2745     Br  0.62325304  0.39915938  0.73365901    -0.01570
Br2746     Br  0.56436098  0.38894261  0.74741874    -0.01640
Br2747     Br  0.63123941  0.46370943  0.83314093    -0.01600
Br2748     Br  0.57309070  0.45300471  0.85184343    -0.01580
C2749       C  0.60394726  0.40293774  0.89157594    -0.02710
C2750       C  0.58027595  0.39589595  0.90216860     0.06970
C2751       C  0.56989879  0.40995595  0.92580410    -0.02820
C2752       C  0.57898286  0.43354081  0.93216006    -0.02820
C2753       C  0.60268260  0.44087957  0.92198962     0.07110
C2754       C  0.61598882  0.42400848  0.90344625    -0.03020
Br2755     Br  0.65125753  0.42746539  0.89573676    -0.01570
Br2756     Br  0.62070010  0.38323629  0.86212896    -0.01640
Br2757     Br  0.55713220  0.45580152  0.95289960    -0.01600
Br2758     Br  0.54458081  0.39688159  0.95236452    -0.01580
C2759       C  0.42544755  0.45109992  0.58417601    -0.02710
C2760       C  0.41602560  0.44957247  0.55456395     0.06970
C2761       C  0.42557710  0.43182124  0.53502055    -0.02820
C2762       C  0.44434140  0.41559641  0.54522081    -0.02820
C2763       C  0.45193459  0.41546697  0.57555417     0.07110
C2764       C  0.44312256  0.43388829  0.59470953    -0.03020
Br2765     Br  0.45730951  0.43736246  0.63426826    -0.01570
Br2766     Br  0.41530421  0.47763549  0.60993319    -0.01640
Br2767     Br  0.46316466  0.39745697  0.51654242    -0.01600
Br2768     Br  0.41508935  0.43158050  0.99342190    -0.01580
C2769       C  0.57019528  0.43709561  0.54104299    -0.02710
C2770       C  0.57269529  0.41194688  0.54704833     0.06970
C2771       C  0.59435775  0.39930948  0.53728784    -0.02820
C2772       C  0.61366671  0.41208728  0.52241563    -0.02820
C2773       C  0.61177254  0.43760381  0.51744408     0.07110
C2774       C  0.58933407  0.44993300  0.52627033    -0.03020
Br2775     Br  0.58299278  0.48454955  0.01866221    -0.01570
Br2776     Br  0.53973053  0.45376516  0.55218026    -0.01640
Br2777     Br  0.64330714  0.39480299  0.51035824    -0.01600
Br2778     Br  0.59877193  0.36459468  0.54574688    -0.01580
C2779       C  0.61597443  0.42038666  0.66236331    -0.02710
C2780       C  0.60297446  0.44109555  0.67385789     0.06970
C2781       C  0.57686371  0.44113067  0.67296234    -0.02820
C2782       C  0.56376186  0.42065982  0.66187273    -0.02820
C2783       C  0.57669622  0.39993151  0.64975566     0.07110
C2784       C  0.60291800  0.40038974  0.64968375    -0.03020
Br2785     Br  0.62121827  0.37285476  0.63387990    -0.01570
Br2786     Br  0.65165909  0.41717043  0.66710156    -0.01640
Br2787     Br  0.52781466  0.42291933  0.66347350    -0.01600
Br2788     Br  0.55879379  0.47004934  0.68580390    -0.01580
C2789       C  0.47693039  0.34174718  0.99044428    -0.02710
C2790       C  0.50114795  0.33697031  0.50236857     0.06970
C2791       C  0.52072447  0.33332509  0.98189592    -0.02820
C2792       C  0.51667332  0.33822109  0.95110157    -0.02820
C2793       C  0.49439498  0.34983568  0.94108967     0.07110
C2794       C  0.47398453  0.35009343  0.96050803    -0.03020
Br2795     Br  0.44187161  0.36078341  0.94566785    -0.01570
Br2796     Br  0.44747665  0.33468788  0.51375424    -0.01640
Br2797     Br  0.54120704  0.32713253  0.92312666    -0.01600
Br2798     Br  0.55303281  0.32120019  0.99484204    -0.01580
C2799       C  0.47512413  0.36670259  0.73981525    -0.02710
C2800       C  0.49225628  0.34943467  0.75270315     0.06970
C2801       C  0.50261127  0.33155202  0.73383603    -0.02820
C2802       C  0.49865797  0.33311415  0.70255178    -0.02820
C2803       C  0.48620691  0.35370000  0.68943583     0.07110
C2804       C  0.47312723  0.36952074  0.70838408    -0.03020
Br2805     Br  0.45031535  0.39341681  0.69131700    -0.01570
Br2806     Br  0.45241209  0.38543182  0.76386326    -0.01640
Br2807     Br  0.50912137  0.30585835  0.67877755    -0.01600
Br2808     Br  0.52033524  0.30343807  0.75069256    -0.01580
C2809       C  0.83719276  0.98418007  0.86080640    -0.02710
C2810       C  0.85279359  0.00012226  0.87713616     0.06970
C2811       C  0.87572757  0.00670198  0.86375438    -0.02820
C2812       C  0.88125371  0.00112527  0.83364892    -0.02820
C2813       C  0.86379682  0.98831203  0.81596246     0.07110
C2814       C  0.84306439  0.97775289  0.83085287    -0.03020
Br2815     Br  0.82618817  0.95045016  0.81286167    -0.01570
Br2816     Br  0.80866592  0.96978257  0.88010182    -0.01640
Br2817     Br  0.91369213  0.01022033  0.81798280    -0.01600
Br2818     Br  0.90121429  0.02165726  0.88670482    -0.01580
C2819       C  0.85667564  0.01476739  0.58364255    -0.02710
C2820       C  0.85675601  0.99215042  0.56841834     0.06970
C2821       C  0.84679129  0.97148608  0.58371856    -0.02820
C2822       C  0.83945522  0.97350103  0.61428844    -0.02820
C2823       C  0.83794475  0.99702968  0.62782914     0.07110
C2824       C  0.84269187  0.01760156  0.60952816    -0.03020
Br2825     Br  0.83128843  0.05011818  0.61887858    -0.01570
Br2826     Br  0.88446504  0.03654081  0.58242719    -0.01640
Br2827     Br  0.82999613  0.94440298  0.63653560    -0.01600
Br2828     Br  0.84567318  0.94026110  0.56387861    -0.01580
C2829       C  0.96819382  0.24806166  0.86684042    -0.02710
C2830       C  0.99063379  0.23450557  0.86537055     0.06970
C2831       C  0.01226791  0.24395356  0.87950732    -0.02820
C2832       C  0.01118196  0.26588106  0.89593320    -0.02820
C2833       C  0.98900929  0.28037915  0.89608663     0.07110
C2834       C  0.96718174  0.27050533  0.88249599    -0.03020
Br2835     Br  0.93496797  0.28619252  0.88638562    -0.01570
Br2836     Br  0.93887337  0.23685149  0.84552695    -0.01640
Br2837     Br  0.04023776  0.27367177  0.92041619    -0.01600
Br2838     Br  0.04394093  0.22670255  0.87806501    -0.01580
C2839       C  0.94257373  0.11489154  0.93471370    -0.02710
C2840       C  0.93244489  0.12727753  0.90917768     0.06970
C2841       C  0.90852114  0.12022423  0.89957512    -0.02820
C2842       C  0.89710265  0.09911529  0.91255262    -0.02820
C2843       C  0.91113022  0.08279998  0.93199280     0.07110
C2844       C  0.93420860  0.09135438  0.94296920    -0.03020
Br2845     Br  0.95645420  0.07084527  0.96667276    -0.01570
Br2846     Br  0.96714373  0.13049840  0.95976955    -0.01640
Br2847     Br  0.86219058  0.09402765  0.90342237    -0.01600
Br2848     Br  0.89126199  0.13934630  0.86904741    -0.01580
C2849       C  0.89805049  0.07795683  0.80395954    -0.02710
C2850       C  0.89272038  0.08209213  0.77332127     0.06970
C2851       C  0.90789907  0.09887361  0.75766571    -0.02820
C2852       C  0.93040531  0.10754303  0.77040693    -0.02820
C2853       C  0.93697132  0.10166477  0.80073177     0.07110
C2854       C  0.92055258  0.08622407  0.81710274    -0.03020
Br2855     Br  0.92928562  0.07408639  0.85647351    -0.01570
Br2856     Br  0.87241635  0.06343752  0.82830133    -0.01640
Br2857     Br  0.95310010  0.12520291  0.74427710    -0.01600
Br2858     Br  0.89606480  0.11320239  0.72084291    -0.01580
C2859       C  0.96702721  0.26690995  0.64228193    -0.02710
C2860       C  0.98920931  0.28085403  0.64341755     0.06970
C2861       C  0.01055005  0.27195442  0.62858390    -0.02820
C2862       C  0.00918817  0.25065129  0.61114039    -0.02820
C2863       C  0.98784100  0.23522205  0.61233106     0.07110
C2864       C  0.96626010  0.24427230  0.62693354    -0.03020
Br2865     Br  0.93470587  0.22720954  0.62466779    -0.01570
Br2866     Br  0.93804311  0.27769288  0.66405108    -0.01640
Br2867     Br  0.03615643  0.24523683  0.58310457    -0.01600
Br2868     Br  0.04259283  0.28804217  0.63195023    -0.01580
C2869       C  0.91003076  0.11370294  0.64177765    -0.02710
C2870       C  0.93628514  0.11372398  0.64279327     0.06970
C2871       C  0.94867996  0.09176626  0.65309550    -0.02820
C2872       C  0.93506760  0.07091741  0.66228611    -0.02820
C2873       C  0.90908246  0.07187153  0.66443224     0.07110
C2874       C  0.89647358  0.09321292  0.65305846    -0.03020
Br2875     Br  0.86081419  0.09661291  0.65652943    -0.01570
Br2876     Br  0.89247509  0.14272334  0.62768155    -0.01640
Br2877     Br  0.95208614  0.04010444  0.67010401    -0.01600
Br2878     Br  0.98454211  0.08852750  0.65553209    -0.01580
C2879       C  0.02609083  0.14534093  0.99187473    -0.02710
C2880       C  0.01565615  0.16754622  0.50238710     0.06970
C2881       C  0.00802266  0.18568215  0.98166652    -0.02820
C2882       C  0.00914610  0.18082736  0.95088651    -0.02820
C2883       C  0.02227646  0.16000220  0.94022235     0.07110
C2884       C  0.03154705  0.14263969  0.96129360    -0.03020
Br2885     Br  0.05100208  0.11466012  0.94885986    -0.01570
Br2886     Br  0.02826968  0.11662287  0.51762704    -0.01640
Br2887     Br  0.98731717  0.19976924  0.92543117    -0.01600
Br2888     Br  0.99532019  0.21698464  0.99511121    -0.01580
C2889       C  0.03775878  0.15186706  0.71004419    -0.02710
C2890       C  0.02077278  0.16254027  0.68978707     0.06970
C2891       C  0.00158296  0.17783928  0.70043667    -0.02820
C2892       C  0.99901967  0.18218763  0.73127579    -0.02820
C2893       C  0.01485393  0.17002605  0.75220822     0.07110
C2894       C  0.03524255  0.15576633  0.74103428    -0.03020
Br2895     Br  0.06108403  0.14149262  0.76638379    -0.01570
Br2896     Br  0.06477524  0.13195825  0.69488626    -0.01640
Br2897     Br  0.97451750  0.20614540  0.74372415    -0.01600
Br2898     Br  0.97698569  0.19131015  0.67332913    -0.01580
C2899       C  0.94355994  0.07781089  0.54484614    -0.02710
C2900       C  0.94221798  0.10322173  0.54790656     0.06970
C2901       C  0.92036552  0.11607468  0.53833071    -0.02820
C2902       C  0.89976663  0.10323570  0.52638090    -0.02820
C2903       C  0.90067289  0.07750908  0.52370734     0.07110
C2904       C  0.92323196  0.06489306  0.53286098    -0.03020
Br2905     Br  0.92914868  0.02999090  0.02878714    -0.01570
Br2906     Br  0.97446094  0.06092521  0.55543925    -0.01640
Br2907     Br  0.86970375  0.12084877  0.51539354    -0.01600
Br2908     Br  0.91755840  0.15130474  0.54274683    -0.01580
C2909       C  0.04096613  0.77383675  0.87337773    -0.02710
C2910       C  0.02114788  0.78150425  0.89225976     0.06970
C2911       C  0.00064896  0.76516262  0.89629955    -0.02820
C2912       C  0.99906754  0.74320751  0.88000156    -0.02820
C2913       C  0.01953959  0.73488861  0.86319371     0.07110
C2914       C  0.04038535  0.75042442  0.85981046    -0.03020
Br2915     Br  0.06753890  0.74033661  0.83442894    -0.01570
Br2916     Br  0.06942654  0.79461800  0.86521631    -0.01640
Br2917     Br  0.96812912  0.72500871  0.88107706    -0.01600
Br2918     Br  0.97491943  0.77054856  0.92596184    -0.01580
C2919       C  0.93625685  0.95880351  0.93168176    -0.02710
C2920       C  0.91994156  0.95411206  0.95591276     0.06970
C2921       C  0.91871089  0.92983778  0.96793054    -0.02820
C2922       C  0.93294650  0.91074155  0.95522673    -0.02820
C2923       C  0.94757856  0.91549766  0.92963317     0.07110
C2924       C  0.94783601  0.93929137  0.91702117    -0.03020
Br2925     Br  0.96345619  0.94501455  0.87861364    -0.01570
Br2926     Br  0.94671874  0.99147732  0.92060470    -0.01640
Br2927     Br  0.93322747  0.87853806  0.97387263    -0.01600
Br2928     Br  0.90063904  0.92323045  0.50451252    -0.01580
C2929       C  0.03377615  0.77597190  0.61116327    -0.02710
C2930       C  0.03125821  0.77944535  0.64227515     0.06970
C2931       C  0.03064786  0.75890775  0.66190412    -0.02820
C2932       C  0.03121571  0.73502197  0.65019003    -0.02820
C2933       C  0.02981939  0.73170466  0.61892544     0.07110
C2934       C  0.03177879  0.75217943  0.59940775    -0.03020
Br2935     Br  0.03200776  0.74764040  0.55667915    -0.01570
Br2936     Br  0.04001516  0.80366403  0.58471321    -0.01640
Br2937     Br  0.03463189  0.70693951  0.67677519    -0.01600
Br2938     Br  0.02968363  0.76350023  0.70477374    -0.01580
C2939       C  0.91007008  0.92418101  0.69885568    -0.02710
C2940       C  0.91749368  0.94910694  0.70258343     0.06970
C2941       C  0.94274327  0.95507794  0.69733137    -0.02820
C2942       C  0.95869185  0.93808375  0.68401430    -0.02820
C2943       C  0.95247561  0.91278736  0.68346429     0.07110
C2944       C  0.92786850  0.90593184  0.69129991    -0.03020
Br2945     Br  0.91806983  0.87174517  0.69222020    -0.01570
Br2946     Br  0.87577388  0.91424329  0.70375407    -0.01640
Br2947     Br  0.98731634  0.95116048  0.66296158    -0.01600
Br2948     Br  0.95777514  0.98483482  0.71233841    -0.01580
C2949       C  0.98360555  0.82702577  0.77435652    -0.02710
C2950       C  0.00544494  0.83605668  0.76035283     0.06970
C2951       C  0.02039600  0.85205596  0.77699724    -0.02820
C2952       C  0.01093224  0.86371719  0.80222374    -0.02820
C2953       C  0.99098806  0.85330447  0.81840477     0.07110
C2954       C  0.97768966  0.83395880  0.80430335    -0.03020
Br2955     Br  0.95010437  0.81858307  0.82452199    -0.01570
Br2956     Br  0.96300863  0.80391853  0.75323019    -0.01640
Br2957     Br  0.02200698  0.89671422  0.80782608    -0.01600
Br2958     Br  0.05542541  0.85446012  0.77047894    -0.01580
C2959       C  0.98573054  0.83255975  0.55875889    -0.02710
C2960       C  0.98875042  0.85640854  0.57148002     0.06970
C2961       C  0.99302748  0.87647879  0.55134733    -0.02820
C2962       C  0.99643813  0.87233998  0.52034328    -0.02820
C2963       C  0.99702460  0.84821690  0.50885590     0.07110
C2964       C  0.99106261  0.82845914  0.52809543    -0.03020
Br2965     Br  0.98923945  0.79577313  0.51180796    -0.01570
Br2966     Br  0.97224774  0.80527579  0.58177244    -0.01640
Br2967     Br  0.00022731  0.90023912  0.99351331    -0.01600
Br2968     Br  0.99418130  0.91019112  0.56489988    -0.01580
C2969       C  0.08668933  0.10466051  0.82999350    -0.02710
C2970       C  0.06085763  0.10048241  0.82462001     0.06970
C2971       C  0.05394470  0.08169296  0.80427260    -0.02820
C2972       C  0.07199971  0.06526281  0.79368432    -0.02820
C2973       C  0.09720971  0.06791533  0.80192079     0.07110
C2974       C  0.10466973  0.08920498  0.81704282    -0.03020
Br2975     Br  0.13926991  0.09826452  0.81805906    -0.01570
Br2976     Br  0.09852857  0.13044580  0.85597958    -0.01640
Br2977     Br  0.06254935  0.04035654  0.76529351    -0.01600
Br2978     Br  0.02025755  0.07868331  0.78864787    -0.01580
C2979       C  0.07823088  0.94727642  0.85789427    -0.02710
C2980       C  0.10384312  0.94539501  0.85320965     0.06970
C2981       C  0.11593413  0.92244675  0.85882128    -0.02820
C2982       C  0.10206398  0.90140707  0.86751573    -0.02820
C2983       C  0.07594428  0.90270456  0.86985839     0.07110
C2984       C  0.06415826  0.92623517  0.86505608    -0.03020
Br2985     Br  0.02874092  0.93193384  0.86752385    -0.01570
Br2986     Br  0.06256209  0.97948945  0.85501767    -0.01640
Br2987     Br  0.11867880  0.87019256  0.87366635    -0.01600
Br2988     Br  0.15131793  0.91878356  0.85280552    -0.01580
C2989       C  0.08389337  0.94412328  0.74745348    -0.02710
C2990       C  0.10773414  0.93396708  0.75514040     0.06970
C2991       C  0.11285688  0.90947094  0.74781633    -0.02820
C2992       C  0.09539175  0.89608534  0.73067152    -0.02820
C2993       C  0.07289623  0.90752552  0.72027210     0.07110
C2994       C  0.06684591  0.93101989  0.72998668    -0.03020
Br2995     Br  0.03440856  0.94479882  0.72062043    -0.01570
Br2996     Br  0.07330370  0.97623357  0.76025007    -0.01640
Br2997     Br  0.10379842  0.86274297  0.71955584    -0.01600
Br2998     Br  0.14432320  0.89488551  0.75940551    -0.01580
C2999       C  0.06873305  0.07803082  0.59709156    -0.02710
C3000       C  0.06701021  0.10173564  0.58399645     0.06970
C3001       C  0.08364938  0.10840967  0.56086635    -0.02820
C3002       C  0.09914125  0.09043149  0.54797240    -0.02820
C3003       C  0.09941206  0.06608546  0.55960812     0.07110
C3004       C  0.08522071  0.06047911  0.58543062    -0.03020
Br3005     Br  0.08910298  0.02913217  0.60605168    -0.01570
Br3006     Br  0.04926987  0.06992490  0.63211512    -0.01640
Br3007     Br  0.11831537  0.09902211  0.51291184    -0.01600
Br3008     Br  0.08496306  0.14192516  0.54608102    -0.01580
C3009       C  0.07410857  0.90273200  0.57892499    -0.02710
C3010       C  0.08084595  0.89617114  0.60886626     0.06970
C3011       C  0.09521648  0.91329130  0.62496101    -0.02820
C3012       C  0.09935036  0.93723733  0.61346962    -0.02820
C3013       C  0.09347091  0.94357660  0.58338210     0.07110
C3014       C  0.07924373  0.92648831  0.56693542    -0.03020
Br3015     Br  0.06177602  0.93706795  0.53146039    -0.01570
Br3016     Br  0.05887395  0.87838316  0.55356665    -0.01640
Br3017     Br  0.10787015  0.96285202  0.64109716    -0.01600
Br3018     Br  0.11254027  0.90362419  0.66077393    -0.01580
C3019       C  0.17478975  0.00215908  0.93510394    -0.02710
C3020       C  0.16351197  0.02389632  0.94577933     0.06970
C3021       C  0.16141412  0.04420351  0.92614256    -0.02820
C3022       C  0.16904198  0.04221874  0.89596170    -0.02820
C3023       C  0.17556895  0.01903080  0.88385599     0.07110
C3024       C  0.17974182  0.99921973  0.90432480    -0.03020
Br3025     Br  0.19283844  0.96773935  0.89169390    -0.01570
Br3026     Br  0.18467918  0.97615506  0.96219626    -0.01640
Br3027     Br  0.17462571  0.07203804  0.87342725    -0.01600
Br3028     Br  0.14939097  0.07511213  0.94110510    -0.01580
C3029       C  0.16304667  0.99102701  0.65308368    -0.02710
C3030       C  0.16353630  0.01224438  0.63444498     0.06970
C3031       C  0.15938053  0.03558512  0.64776372    -0.02820
C3032       C  0.15255284  0.03725242  0.67828552    -0.02820
C3033       C  0.14985335  0.01591771  0.69617526     0.07110
C3034       C  0.15547335  0.99276017  0.68320045    -0.03020
Br3035     Br  0.15691845  0.96273391  0.70631237    -0.01570
Br3036     Br  0.17428916  0.95907540  0.63886545    -0.01640
Br3037     Br  0.14812125  0.06905255  0.69640074    -0.01600
Br3038     Br  0.16564423  0.06589876  0.62585593    -0.01580
C3039       C  0.11338324  0.91439746  0.98283300    -0.02710
C3040       C  0.11263911  0.94026738  0.98220095     0.06970
C3041       C  0.09157100  0.95235432  0.96849602    -0.02820
C3042       C  0.07094765  0.93869114  0.95854370    -0.02820
C3043       C  0.07139831  0.91287897  0.96020291     0.07110
C3044       C  0.09315946  0.90073643  0.97137706    -0.03020
Br3045     Br  0.09658891  0.86536004  0.96957350    -0.01570
Br3046     Br  0.14282898  0.89759706  0.99768878    -0.01640
Br3047     Br  0.04068574  0.95573005  0.94604860    -0.01600
Br3048     Br  0.08854829  0.98785938  0.96448187    -0.01580
C3049       C  0.74417288  0.04575218  0.75940573    -0.02710
C3050       C  0.73369155  0.02483052  0.77409371     0.06970
C3051       C  0.74853073  0.00327839  0.77720826    -0.02820
C3052       C  0.77080882  0.00109769  0.76125732    -0.02820
C3053       C  0.78127405  0.02177868  0.74658383     0.07110
C3054       C  0.76780776  0.04416318  0.74582509    -0.03020
Br3055     Br  0.78019173  0.07213209  0.72311837    -0.01570
Br3056     Br  0.72754847  0.07742579  0.75869758    -0.01640
Br3057     Br  0.78538556  0.96870101  0.75833257    -0.01600
Br3058     Br  0.74068121  0.97694715  0.80549885    -0.01580
C3059       C  0.73878433  0.01023127  0.98683274    -0.02710
C3060       C  0.73208927  0.02340175  0.51281035     0.06970
C3061       C  0.75054241  0.03744005  0.52740982    -0.02820
C3062       C  0.77534353  0.03767703  0.51672946    -0.02820
C3063       C  0.78152926  0.02529355  0.98993501     0.07110
C3064       C  0.76259911  0.01278690  0.97432754    -0.03020
Br3065     Br  0.76852374  0.00028792  0.93452976    -0.01570
Br3066     Br  0.71696636  0.98669285  0.96874389    -0.01640
Br3067     Br  0.80086851  0.05350736  0.54032272    -0.01600
Br3068     Br  0.74229208  0.05452801  0.56371015    -0.01580
C3069       C  0.65119204  0.97476011  0.92435869    -0.02710
C3070       C  0.65401096  0.99444528  0.94402961     0.06970
C3071       C  0.66456296  0.01667081  0.93310107    -0.02820
C3072       C  0.66759973  0.02078987  0.90218182    -0.02820
C3073       C  0.66445338  0.00113925  0.88199720     0.07110
C3074       C  0.65814735  0.97752469  0.89404001    -0.03020
Br3075     Br  0.66197206  0.94796596  0.87111975    -0.01570
Br3076     Br  0.63976234  0.94341004  0.93975772    -0.01640
Br3077     Br  0.67578620  0.05394167  0.88898878    -0.01600
Br3078     Br  0.67822375  0.04092462  0.95957930    -0.01580
C3079       C  0.67745845  0.01101232  0.68228428    -0.02710
C3080       C  0.66091204  0.99305429  0.69369542     0.06970
C3081       C  0.65096022  0.97547033  0.67433256    -0.02820
C3082       C  0.65666948  0.97627281  0.64347183    -0.02820
C3083       C  0.67131621  0.99598600  0.63120349     0.07110
C3084       C  0.68274322  0.01248061  0.65139704    -0.03020
Br3085     Br  0.70670340  0.03673521  0.63789696    -0.01570
Br3086     Br  0.69171348  0.03522314  0.70841147    -0.01640
Br3087     Br  0.64461579  0.94905061  0.61977777    -0.01600
Br3088     Br  0.62976637  0.94987390  0.69059729    -0.01580
C3089       C  0.54209501  0.26860718  0.86099830    -0.02710
C3090       C  0.52116210  0.28410487  0.86424789     0.06970
C3091       C  0.50055163  0.27518279  0.88076432    -0.02820
C3092       C  0.50185278  0.25244487  0.89613654    -0.02820
C3093       C  0.52172643  0.23575984  0.89078892     0.07110
C3094       C  0.54216941  0.24439181  0.87331582    -0.03020
Br3095     Br  0.57089463  0.22390368  0.86573272    -0.01570
Br3096     Br  0.56993006  0.27967320  0.83711457    -0.01640
Br3097     Br  0.47670584  0.24620007  0.92645030    -0.01600
Br3098     Br  0.46927133  0.29289984  0.88198250    -0.01580
C3099       C  0.56831263  0.07741575  0.96314137    -0.02710
C3100       C  0.57034606  0.10286427  0.95879685     0.06970
C3101       C  0.59212838  0.11510147  0.96935461    -0.02820
C3102       C  0.61165254  0.10182292  0.98388633    -0.02820
C3103       C  0.60977711  0.07620469  0.98808667     0.07110
C3104       C  0.58735680  0.06424622  0.97821578    -0.03020
Br3105     Br  0.58046971  0.02979833  0.98612124    -0.01570
Br3106     Br  0.53880225  0.06043581  0.94902077    -0.01640
Br3107     Br  0.64142129  0.11860753  0.99677219    -0.01600
Br3108     Br  0.59653704  0.14994887  0.96208820    -0.01580
C3109       C  0.55939851  0.09442811  0.84704808    -0.02710
C3110       C  0.57154871  0.11652499  0.85659032     0.06970
C3111       C  0.59755173  0.11818811  0.85341313    -0.02820
C3112       C  0.61110495  0.09855745  0.84074457    -0.02820
C3113       C  0.59866867  0.07720834  0.83009740     0.07110
C3114       C  0.57288853  0.07525918  0.83368279    -0.03020
Br3115     Br  0.55631960  0.04503486  0.82254508    -0.01570
Br3116     Br  0.52439305  0.08812587  0.85351209    -0.01640
Br3117     Br  0.64686754  0.10159398  0.83792759    -0.01600
Br3118     Br  0.61456145  0.14783240  0.86519776    -0.01580
C3119       C  0.50980918  0.24076357  0.61822204    -0.02710
C3120       C  0.52654165  0.23262598  0.64098324     0.06970
C3121       C  0.54604599  0.24839015  0.64991998    -0.02820
C3122       C  0.54780607  0.27244099  0.63747047    -0.02820
C3123       C  0.53077328  0.28021220  0.61461143     0.07110
C3124       C  0.51400259  0.26289291  0.60284675    -0.03020
Br3125     Br  0.49788215  0.26824017  0.56412349    -0.01570
Br3126     Br  0.47899118  0.22436256  0.60941921    -0.01640
Br3127     Br  0.57281339  0.29443954  0.65324640    -0.01600
Br3128     Br  0.56824003  0.23824352  0.68211822    -0.01580
C3129       C  0.60726806  0.07182465  0.70261880    -0.02710
C3130       C  0.62092192  0.08187477  0.72702365     0.06970
C3131       C  0.61265924  0.10428329  0.73875375    -0.02820
C3132       C  0.58927114  0.11425501  0.72993176    -0.02820
C3133       C  0.57368216  0.10178790  0.70865211     0.07110
C3134       C  0.58302421  0.08004556  0.69574672    -0.03020
Br3135     Br  0.56237499  0.05931125  0.67078244    -0.01570
Br3136     Br  0.62203528  0.04765627  0.67653394    -0.01640
Br3137     Br  0.57969853  0.14488528  0.74853663    -0.01600
Br3138     Br  0.63484139  0.12288766  0.76400166    -0.01580
C3139       C  0.49653093  0.18729069  0.77503137    -0.02710
C3140       C  0.49690851  0.16695995  0.75600877     0.06970
C3141       C  0.48978760  0.14362036  0.76723715    -0.02820
C3142       C  0.48245225  0.14052317  0.79729725    -0.02820
C3143       C  0.48405024  0.16039758  0.81745170     0.07110
C3144       C  0.48997209  0.18424582  0.80551608    -0.03020
Br3145     Br  0.48838077  0.21371069  0.82927135    -0.01570
Br3146     Br  0.50445743  0.21950135  0.75881632    -0.01640
Br3147     Br  0.46819456  0.10926346  0.80934710    -0.01600
Br3148     Br  0.49146351  0.11512883  0.74186576    -0.01580
C3149       C  0.47286704  0.15623243  0.54853670    -0.02710
C3150       C  0.49231301  0.16238597  0.56808292     0.06970
C3151       C  0.51313928  0.17538640  0.55686637    -0.02820
C3152       C  0.51575826  0.17994546  0.52583188    -0.02820
C3153       C  0.49683602  0.17252759  0.50550751     0.07110
C3154       C  0.47445515  0.16211303  0.51768920    -0.03020
Br3155     Br  0.44456142  0.15661750  0.99392016    -0.01570
Br3156     Br  0.44345874  0.14055218  0.56472035    -0.01640
Br3157     Br  0.54556375  0.19676705  0.51242339    -0.01600
Br3158     Br  0.53879764  0.18693475  0.58367021    -0.01580
C3159       C  0.60181115  0.11203654  0.61357063    -0.02710
C3160       C  0.57559184  0.11313036  0.61252749     0.06970
C3161       C  0.56248517  0.09272396  0.59970024    -0.02820
C3162       C  0.57528318  0.07201547  0.58895925    -0.02820
C3163       C  0.60139107  0.07140799  0.58897990     0.07110
C3164       C  0.61466424  0.09168376  0.60134253    -0.03020
Br3165     Br  0.65062471  0.09314617  0.59982965    -0.01570
Br3166     Br  0.62033613  0.13923362  0.62991597    -0.01640
Br3167     Br  0.55660890  0.04364708  0.57531636    -0.01600
Br3168     Br  0.52657862  0.09115894  0.59639662    -0.01580
C3169       C  0.50992830  0.77284945  0.88214381    -0.02710
C3170       C  0.49089629  0.78206388  0.86294044     0.06970
C3171       C  0.46989790  0.76706907  0.85730034    -0.02820
C3172       C  0.46832814  0.74303798  0.87008143    -0.02820
C3173       C  0.48752092  0.73409688  0.88952598     0.07110
C3174       C  0.50667639  0.75061853  0.89784881    -0.03020
Br3175     Br  0.52648094  0.74534936  0.93409379    -0.01570
Br3176     Br  0.54117283  0.78980181  0.88774814    -0.01640
Br3177     Br  0.43882455  0.72386595  0.86236351    -0.01600
Br3178     Br  0.44436302  0.77855024  0.82969943    -0.01580
C3179       C  0.55108768  0.94155413  0.81216719    -0.02710
C3180       C  0.56006241  0.92033122  0.82821227     0.06970
C3181       C  0.58607694  0.91546549  0.82798546    -0.02820
C3182       C  0.60254307  0.93165303  0.81299734    -0.02820
C3183       C  0.59382606  0.95435167  0.80078962     0.07110
C3184       C  0.56783243  0.95832424  0.79884624    -0.03020
Br3185     Br  0.55449111  0.98537708  0.77470380    -0.01570
Br3186     Br  0.51576885  0.94819683  0.80610549    -0.01640
Br3187     Br  0.63657786  0.92096504  0.80740830    -0.01600
Br3188     Br  0.60029204  0.88704397  0.84855863    -0.01580
C3189       C  0.50281062  0.76411272  0.60084659    -0.02710
C3190       C  0.48389665  0.78011579  0.61103052     0.06970
C3191       C  0.46550482  0.77039323  0.63060335    -0.02820
C3192       C  0.46840528  0.74651125  0.64310259    -0.02820
C3193       C  0.48931014  0.73200505  0.63584905     0.07110
C3194       C  0.50662342  0.74115408  0.61483088    -0.03020
Br3195     Br  0.53634373  0.72314163  0.60494686    -0.01570
Br3196     Br  0.52195649  0.77170342  0.56509167    -0.01640
Br3197     Br  0.44479236  0.73457076  0.67240388    -0.01600
Br3198     Br  0.43524661  0.78827409  0.63906865    -0.01580
C3199       C  0.58109236  0.95604394  0.58482334    -0.02710
C3200       C  0.59765524  0.94984539  0.56149502     0.06970
C3201       C  0.59756698  0.92547981  0.55058395    -0.02820
C3202       C  0.57964534  0.90846255  0.56097719    -0.02820
C3203       C  0.56067630  0.91613340  0.58068441     0.07110
C3204       C  0.56228224  0.93960289  0.59358504    -0.03020
Br3205     Br  0.53996306  0.94884851  0.62518049    -0.01570
Br3206     Br  0.58513299  0.98625384  0.60701214    -0.01640
Br3207     Br  0.58130639  0.87474928  0.54776972    -0.01600
Br3208     Br  0.62110181  0.91504661  0.52069013    -0.01580
C3209       C  0.52139034  0.86912033  0.99287189    -0.02710
C3210       C  0.50728468  0.84885890  0.50350477     0.06970
C3211       C  0.49884733  0.83133488  0.98295347    -0.02820
C3212       C  0.50382143  0.83474552  0.95217418    -0.02820
C3213       C  0.52068777  0.85326479  0.94233158     0.07110
C3214       C  0.53030220  0.86972713  0.96348072    -0.03020
Br3215     Br  0.55567357  0.89341075  0.95260014    -0.01570
Br3216     Br  0.52471031  0.89856424  0.51607121    -0.01640
Br3217     Br  0.48385375  0.81656029  0.92450378    -0.01600
Br3218     Br  0.48018617  0.80296423  0.99646006    -0.01580
C3219       C  0.53438696  0.86690858  0.74072986    -0.02710
C3220       C  0.51588069  0.85088750  0.75310949     0.06970
C3221       C  0.50108185  0.83696519  0.73320850    -0.02820
C3222       C  0.50318732  0.84056506  0.70205064    -0.02820
C3223       C  0.52107800  0.85686308  0.68990363     0.07110
C3224       C  0.53685104  0.86974567  0.70935397    -0.03020
Br3225     Br  0.56219906  0.89112341  0.69272605    -0.01570
Br3226     Br  0.55686906  0.88579493  0.76534750    -0.01640
Br3227     Br  0.47947659  0.82445152  0.67659952    -0.01600
Br3228     Br  0.47840241  0.81174432  0.74762379    -0.01580
C3229       C  0.26551982  0.01362016  0.49675606    -0.02710
C3230       C  0.27680453  0.99151430  0.98689152     0.06970
C3231       C  0.26402505  0.96905171  0.99197255    -0.02820
C3232       C  0.24120809  0.96851841  0.00779506    -0.02820
C3233       C  0.23046543  0.99052911  0.51881459     0.07110
C3234       C  0.24364161  0.01298494  0.51408796    -0.03020
Br3235     Br  0.23324634  0.04383900  0.53179382    -0.01570
Br3236     Br  0.27854672  0.04582456  0.48569962    -0.01640
Br3237     Br  0.22590907  0.93685484  0.01545429    -0.01600
Br3238     Br  0.27620317  0.93885066  0.97477819    -0.01580
C3239       C  0.40576392  0.08175465  0.93284595    -0.02710
C3240       C  0.41284110  0.06436738  0.95523606     0.06970
C3241       C  0.43644732  0.06639900  0.96910371    -0.02820
C3242       C  0.45316209  0.08490082  0.95980285    -0.02820
C3243       C  0.44717768  0.10054513  0.93509110     0.07110
C3244       C  0.42304261  0.09930623  0.92221208    -0.03020
Br3245     Br  0.41367180  0.12047830  0.88875268    -0.01570
Br3246     Br  0.37268455  0.08129733  0.91568188    -0.01640
Br3247     Br  0.48347939  0.08985152  0.98265617    -0.01600
Br3248     Br  0.44563251  0.04437588  0.00180634    -0.01580
C3249       C  0.39837617  0.92145226  0.90644003    -0.02710
C3250       C  0.41088715  0.94070088  0.92193769     0.06970
C3251       C  0.43661555  0.93843975  0.92756307    -0.02820
C3252       C  0.44972999  0.91730210  0.91856064    -0.02820
C3253       C  0.43733285  0.89780077  0.90294678     0.07110
C3254       C  0.41155883  0.90036954  0.89692594    -0.03020
Br3255     Br  0.39352578  0.87423155  0.87734347    -0.01570
Br3256     Br  0.36242419  0.92144986  0.90178988    -0.01640
Br3257     Br  0.48530497  0.91771984  0.92654943    -0.01600
Br3258     Br  0.45484252  0.96595623  0.94441093    -0.01580
C3259       C  0.40477151  0.91635288  0.50559315    -0.02710
C3260       C  0.38659065  0.92990717  0.52063383     0.06970
C3261       C  0.38827608  0.93080347  0.55189166    -0.02820
C3262       C  0.40914363  0.92065492  0.56708319    -0.02820
C3263       C  0.43072339  0.91291559  0.55141498     0.07110
C3264       C  0.42770394  0.91037556  0.51980384    -0.03020
Br3265     Br  0.45399580  0.89753402  0.99520972    -0.01570
Br3266     Br  0.39430914  0.89783811  0.97164535    -0.01640
Br3267     Br  0.40348586  0.91096671  0.60707293    -0.01600
Br3268     Br  0.35949022  0.94231860  0.57345721    -0.01580
C3269       C  0.27551948  0.98357959  0.77656216    -0.02710
C3270       C  0.27990901  0.98851707  0.74578384     0.06970
C3271       C  0.25976908  0.99072577  0.72577097    -0.02820
C3272       C  0.23543960  0.99076312  0.73670716    -0.02820
C3273       C  0.23068497  0.98701073  0.76748405     0.07110
C3274       C  0.25089334  0.98308674  0.78740302    -0.03020
Br3275     Br  0.24484314  0.97821710  0.82969592    -0.01570
Br3276     Br  0.30299263  0.97792961  0.80405677    -0.01640
Br3277     Br  0.20943762  0.99842269  0.70912966    -0.01600
Br3278     Br  0.26540902  0.99222968  0.68292378    -0.01580
C3279       C  0.42835217  0.10683294  0.69530232    -0.02710
C3280       C  0.44667729  0.10071863  0.67413976     0.06970
C3281       C  0.44644242  0.07733877  0.66108218    -0.02820
C3282       C  0.42958548  0.05937858  0.67093775    -0.02820
C3283       C  0.41206285  0.06464119  0.69357884     0.07110
C3284       C  0.41111663  0.08887344  0.70511700    -0.03020
Br3285     Br  0.38777546  0.09757800  0.73607656    -0.01570
Br3286     Br  0.42753983  0.13941474  0.71205116    -0.01640
Br3287     Br  0.43106673  0.02780780  0.65226871    -0.01600
Br3288     Br  0.46875011  0.07006499  0.62841890    -0.01580
C3289       C  0.43639754  0.93978077  0.67806762    -0.02710
C3290       C  0.41183211  0.93621692  0.68708319     0.06970
C3291       C  0.40108360  0.91233246  0.68531310    -0.02820
C3292       C  0.41438008  0.89271830  0.67234876    -0.02820
C3293       C  0.43790451  0.89710854  0.65988000     0.07110
C3294       C  0.44930158  0.92062809  0.66433850    -0.03020
Br3295     Br  0.48224178  0.92887238  0.65076032    -0.01570
Br3296     Br  0.45216097  0.97158517  0.68262261    -0.01640
Br3297     Br  0.40002685  0.86033115  0.66980812    -0.01600
Br3298     Br  0.36810708  0.90603840  0.70041458    -0.01580
C3299       C  0.37597603  0.02739444  0.83209836    -0.02710
C3300       C  0.35579775  0.03189117  0.81183586     0.06970
C3301       C  0.33138756  0.03369942  0.82411038    -0.02820
C3302       C  0.32692644  0.02693798  0.85439929    -0.02820
C3303       C  0.34678543  0.02003732  0.87341532     0.07110
C3304       C  0.37137535  0.02181262  0.86260490    -0.03020
Br3305     Br  0.39919049  0.01601023  0.88962258    -0.01570
Br3306     Br  0.41039827  0.02894351  0.81946586    -0.01640
Br3307     Br  0.29364748  0.02784982  0.87045373    -0.01600
Br3308     Br  0.30380316  0.04702681  0.80082739    -0.01580
C3309       C  0.36565536  0.99931676  0.61145967    -0.02710
C3310       C  0.34300243  0.00565895  0.62545718     0.06970
C3311       C  0.32558159  0.01954877  0.60841312    -0.02820
C3312       C  0.33009446  0.02563159  0.57779914    -0.02820
C3313       C  0.35234390  0.01801560  0.56346911     0.07110
C3314       C  0.37061649  0.00569886  0.58130871    -0.03020
Br3315     Br  0.40351693  0.99764460  0.56596005    -0.01570
Br3316     Br  0.39129158  0.98239329  0.63310103    -0.01640
Br3317     Br  0.30702382  0.04729500  0.55728085    -0.01600
Br3318     Br  0.29594128  0.03143334  0.62763954    -0.01580
C3319       C  0.42632190  0.93591677  0.82639283    -0.02710
C3320       C  0.44147755  0.92044072  0.80860455     0.06970
C3321       C  0.43602047  0.91958610  0.77752388    -0.02820
C3322       C  0.42037066  0.93788877  0.76638941    -0.02820
C3323       C  0.39899685  0.94306348  0.78337517     0.07110
C3324       C  0.40322172  0.94433766  0.81462308    -0.03020
Br3325     Br  0.37961772  0.96041606  0.83999777    -0.01570
Br3326     Br  0.44107266  0.95442475  0.85811537    -0.01640
Br3327     Br  0.44178947  0.96626424  0.76090595    -0.01600
Br3328     Br  0.45639069  0.90293834  0.74870111    -0.01580
loop_ 
_geom_bond_atom_site_label_1 
_geom_bond_atom_site_label_2 
_geom_bond_distance 
_geom_bond_site_symmetry_2 
_ccdc_geom_bond_type 
O1          Cr19   2.022       .  S
O1            C9   1.271       .  A
O2          Cr19   1.942   1_565  S
O2            C3   1.242       .  A
C3            O4   1.271       .  A
C3         C1659   1.480       .  S
O4          Cr20   2.057       .  S
O5          Cr20   1.958       .  S
O5            C6   1.247       .  A
C6            O7   1.265   1_565  A
C6         C1606   1.471       .  S
O7          Cr21   2.009       .  S
O8          Cr21   1.980       .  S
O8            C9   1.259       .  A
C9         C1636   1.512       .  S
O10         Cr19   1.969       .  S
O10          C18   1.260       .  A
O11         Cr19   2.039   1_565  S
O11          C12   1.270       .  A
C12          O13   1.246       .  A
C12        C1626   1.479       .  S
O13         Cr20   1.909       .  S
O14         Cr20   2.075       .  S
O14          C15   1.291   1_565  A
C15          O16   1.261       .  A
C15        C1646   1.506       .  S
O16         Cr21   1.961       .  S
O17         Cr21   2.022       .  S
O17          C18   1.269       .  A
C18        C1619   1.495       .  S
Cr19         O22   1.745   1_545  S
Cr20         O22   1.775       .  S
Cr21         O22   1.768   1_545  S
O23       Cr1705   2.018   1_544  S
O23          C31   1.267       .  A
O24       Cr1705   1.954   1_554  S
O24          C25   1.252       .  A
C25        O1690   1.274   1_554  A
C25        C1596   1.491       .  S
O26         Cr42   2.062       .  S
O26        C1689   1.274       .  A
O27         Cr42   2.003       .  S
O27          C28   1.262       .  A
C28          O29   1.259   1_565  A
C28        C1566   1.508       .  S
O29         Cr43   2.003       .  S
O30       Cr1707   2.004   1_554  S
O30          C31   1.264       .  A
C31        C1649   1.511       .  S
O32         Cr41   1.980   1_545  S
O32          C40   1.264       .  A
O33         Cr41   2.034       .  S
O33          C34   1.273       .  A
C34          O35   1.254       .  A
C34        C1586   1.496       .  S
O35         Cr42   1.961       .  S
O36         Cr42   2.047       .  S
O36          C37   1.281   1_565  A
C37          O38   1.259       .  A
C37        C1639   1.487       .  S
O38         Cr43   1.958       .  S
O39         Cr43   2.026       .  S
O39          C40   1.270       .  A
C40        C1576   1.487       .  S
Cr41       O1687   2.018   1_565  S
Cr41       O1688   1.954       .  S
Cr41         O44   1.747       .  S
Cr42         O44   1.767       .  S
Cr43       O1694   2.004       .  S
Cr43         O44   1.764   1_545  S
O45         Cr63   1.968       .  S
O45          C53   1.258       .  A
O46         Cr63   1.990       .  S
O46          C47   1.262       .  A
C47          O48   1.259       .  A
C47        C1526   1.498       .  S
O48         Cr64   1.981       .  S
O49         Cr64   2.107       .  S
O49          C50   1.283       .  A
C50          O51   1.221       .  A
C50        C1629   1.494       .  S
O51         Cr65   1.926       .  S
O52         Cr65   2.022       .  S
O52          C53   1.272       .  A
C53        C1559   1.483       .  S
O54         Cr63   2.021       .  S
O54          C62   1.270       .  A
O55         Cr63   1.929       .  S
O55          C56   1.259       .  A
C56          O57   1.285       .  A
C56        C1546   1.479       .  S
O57         Cr64   2.045       .  S
O58         Cr64   1.937       .  S
O58          C59   1.244       .  A
C59          O60   1.284       .  A
C59        C1599   1.522       .  S
O60         Cr65   2.120       .  S
O61         Cr65   1.979       .  S
O61          C62   1.269       .  A
C62        C1539   1.486       .  S
Cr63         O66   1.758       .  S
Cr64         O66   1.766       .  S
Cr65         O66   1.736       .  S
O67         Cr85   1.990       .  S
O67          C75   1.253       .  A
O68         Cr85   2.012       .  S
O68          C69   1.264       .  A
C69          O70   1.267       .  A
C69        C1506   1.497       .  S
O70         Cr86   1.996       .  S
O71         Cr86   2.072       .  S
O71          C72   1.274       .  A
C72          O73   1.238       .  A
C72        C1589   1.511       .  S
O73         Cr87   1.953       .  S
O74         Cr87   1.982       .  S
O74          C75   1.257       .  A
C75        C1549   1.483       .  S
O76         Cr85   2.035       .  S
O76          C84   1.275       .  A
O77         Cr85   1.948       .  S
O77          C78   1.256       .  A
C78          O79   1.278       .  A
C78        C1556   1.499       .  S
O79         Cr86   2.028       .  S
O80         Cr86   1.954       .  S
O80          C81   1.256       .  A
C81          O82   1.267       .  A
C81        C1656   1.480       .  S
O82         Cr87   2.027       .  S
O83         Cr87   1.944       .  S
O83          C84   1.254       .  A
C84        C1516   1.507       .  S
Cr85         O88   1.763       .  S
Cr86         O88   1.762       .  S
Cr87         O88   1.755       .  S
O89        Cr107   2.019       .  S
O89          C97   1.267       .  A
O90        Cr107   1.940       .  S
O90          C91   1.234       .  A
C91          O92   1.279       .  A
C91        C1496   1.513       .  S
O92        Cr108   2.100       .  S
O93        Cr108   1.995       .  S
O93          C94   1.268       .  A
C94          O95   1.265       .  A
C94        C1456   1.488       .  S
O95        Cr109   2.007       .  S
O96        Cr109   1.960       .  S
O96          C97   1.251       .  A
C97        C1486   1.480       .  S
O98        Cr107   1.959       .  S
O98         C106   1.260       .  A
O99        Cr107   2.056       .  S
O99         C100   1.274       .  A
C100        O101   1.246       .  A
C100       C1469   1.508       .  S
O101       Cr108   1.952       .  S
O102       Cr108   2.038       .  S
O102        C103   1.280       .  A
C103        O104   1.259       .  A
C103       C1476   1.480       .  S
O104       Cr109   1.951       .  S
O105       Cr109   2.023       .  S
O105        C106   1.269       .  A
C106       C1616   1.478       .  S
Cr107       O110   1.745       .  S
Cr108       O110   1.763       .  S
Cr109       O110   1.760       .  S
O111       Cr129   2.018       .  S
O111        C119   1.270       .  A
O112       Cr129   1.945       .  S
O112        C113   1.237       .  A
C113        O114   1.279       .  A
C113       C1446   1.505       .  S
O114       Cr130   2.091       .  S
O115       Cr130   1.987       .  S
O115        C116   1.261       .  A
C116        O117   1.266       .  A
C116       C1429   1.512       .  S
O117       Cr131   2.007       .  S
O118       Cr131   1.963       .  S
O118        C119   1.253       .  A
C119       C1479   1.504       .  S
O120       Cr129   1.967       .  S
O120        C128   1.260       .  A
O121       Cr129   2.065       .  S
O121        C122   1.278       .  A
C122        O123   1.250       .  A
C122       C1436   1.492       .  S
O123       Cr130   1.950       .  S
O124       Cr130   2.046       .  S
O124        C125   1.280       .  A
C125        O126   1.251       .  A
C125       C3153   1.505       .  S
O126       Cr131   1.934       .  S
O127       Cr131   2.025       .  S
O127        C128   1.271       .  A
C128       C1579   1.492       .  S
Cr129       O132   1.740       .  S
Cr130       O132   1.764       .  S
Cr131       O132   1.756       .  S
O133      Cr1815   1.951       .  S
O133        C141   1.250       .  A
O134       Cr151   2.010   1_545  S
O134        C135   1.265       .  A
C135        O136   1.270       .  A
C135       C1396   1.496       .  S
O136       Cr152   2.008       .  S
O137       Cr152   2.107       .  S
O137       C1802   1.281       .  A
C138        O139   1.232       .  A
C138       O1801   1.281       .  A
C138       C1439   1.507       .  S
O139      Cr1817   1.919       .  S
O140      Cr1817   2.019   1_565  S
O140        C141   1.269       .  A
C141       C1406   1.481       .  S
O142       Cr151   2.023       .  S
O142        C150   1.270       .  A
O143       Cr151   1.939       .  S
O143        C144   1.254   1_565  A
C144        O145   1.281       .  A
C144       C1419   1.504   1_545  S
O145       Cr152   2.038       .  S
O146       Cr152   1.960       .  S
O146        C147   1.251       .  A
C147        O148   1.275       .  A
C147       C1499   1.499       .  S
O148       Cr153   2.056       .  S
O149       Cr153   1.950   1_565  S
O149        C150   1.256       .  A
C150       C1536   1.490       .  S
Cr151      O1797   1.951   1_554  S
Cr151       O154   1.767   1_565  S
Cr152       O154   1.766       .  S
Cr153      O1803   1.919   1_554  S
Cr153      O1804   2.019   1_544  S
Cr153       O154   1.751       .  S
O155       Cr173   1.966       .  S
O155        C163   1.258       .  A
O156       Cr173   2.002   1_545  S
O156        C157   1.263       .  A
C157        O158   1.259       .  A
C157       C1386   1.501       .  S
O158       Cr174   1.975       .  S
O159       Cr174   2.082       .  S
O159        C160   1.277       .  A
C160        O161   1.237       .  A
C160       C1466   1.504       .  S
O161       Cr175   1.930       .  S
O162       Cr175   2.025   1_565  S
O162        C163   1.274       .  A
C163       C1416   1.481       .  S
O164       Cr173   2.021       .  S
O164        C172   1.266       .  A
O165       Cr173   1.954       .  S
O165        C166   1.259   1_565  A
C166        O167   1.278       .  A
C166       C1409   1.497       .  S
O167       Cr174   2.038       .  S
O168       Cr174   1.949       .  S
O168        C169   1.250       .  A
C169        O170   1.278       .  A
C169       C1449   1.491       .  S
O170       Cr175   2.060       .  S
O171       Cr175   1.977   1_565  S
O171        C172   1.261       .  A
C172       C1519   1.500       .  S
Cr173       O176   1.753   1_565  S
Cr174       O176   1.761       .  S
Cr175       O176   1.737       .  S
O177      Cr1859   2.035       .  S
O177        C185   1.276       .  A
O178      Cr1859   1.934   1_565  S
O178        C179   1.233       .  A
C179       O1844   1.274       .  A
C179       C1376   1.496       .  S
O180       Cr196   2.073       .  S
O180       C1843   1.274   1_554  A
O181       Cr196   2.002       .  S
O181        C182   1.266       .  A
C182        O183   1.261   1_565  A
C182       C1569   1.513       .  S
O183       Cr197   2.007       .  S
O184      Cr1861   1.977       .  S
O184        C185   1.258       .  A
C185       C1356   1.492       .  S
O186       Cr195   1.971       .  S
O186        C194   1.261       .  A
O187       Cr195   2.084   1_565  S
O187        C188   1.282       .  A
C188        O189   1.258       .  A
C188       C1349   1.516       .  S
O189       Cr196   1.960       .  S
O190       Cr196   2.035       .  S
O190        C191   1.277   1_565  A
C191        O192   1.258       .  A
C191       C1366   1.499       .  S
O192       Cr197   1.957       .  S
O193       Cr197   2.017       .  S
O193        C194   1.269       .  A
C194       C1339   1.489       .  S
Cr195      O1841   2.035   1_554  S
Cr195      O1842   1.934   1_544  S
Cr195       O198   1.746   1_545  S
Cr196       O198   1.760       .  S
Cr197      O1848   1.977   1_554  S
Cr197       O198   1.761   1_545  S
O199       Cr217   2.038   1_545  S
O199        C207   1.278       .  A
O200       Cr217   1.889       .  S
O200        C201   1.232       .  A
C201        O202   1.273       .  A
C201       C1326   1.487       .  S
O202       Cr218   2.082       .  S
O203       Cr218   2.002       .  S
O203        C204   1.266       .  A
C204        O205   1.264   1_565  A
C204       C1609   1.481       .  S
O205       Cr219   2.008       .  S
O206       Cr219   1.977       .  S
O206        C207   1.262       .  A
C207       C1369   1.498       .  S
O208       Cr217   1.956   1_545  S
O208        C216   1.253       .  A
O209       Cr217   2.038       .  S
O209        C210   1.272       .  A
C210        O211   1.252       .  A
C210       C1316   1.489       .  S
O211       Cr218   1.959       .  S
O212       Cr218   2.032       .  S
O212        C213   1.277   1_565  A
C213        O214   1.267       .  A
C213       C1359   1.508       .  S
O214       Cr219   1.979       .  S
O215       Cr219   2.032       .  S
O215        C216   1.267       .  A
C216       C1309   1.484       .  S
Cr217       O220   1.742       .  S
Cr218       O220   1.772       .  S
Cr219       O220   1.765   1_545  S
O221       Cr239   1.976       .  S
O221        C229   1.259       .  A
O222       Cr239   2.015   1_455  S
O222        C223   1.268       .  A
C223        O224   1.259       .  A
C223       C1266   1.471       .  S
O224       Cr240   1.970       .  S
O225       Cr240   2.100       .  S
O225        C226   1.282       .  A
C226        O227   1.244       .  A
C226       C1346   1.512       .  S
O227       Cr241   1.941       .  S
O228       Cr241   2.037   1_655  S
O228        C229   1.275       .  A
C229       C1296   1.519       .  S
O230       Cr239   2.048       .  S
O230        C238   1.272       .  A
O231       Cr239   1.974       .  S
O231        C232   1.265   1_655  A
C232        O233   1.285       .  A
C232       C1286   1.504       .  S
O233       Cr240   2.062       .  S
O234       Cr240   1.917       .  S
O234        C235   1.238       .  A
C235        O236   1.277       .  A
C235       C1329   1.477       .  S
O236       Cr241   2.061       .  S
O237       Cr241   1.960   1_655  S
O237        C238   1.254       .  A
C238       C1279   1.503       .  S
Cr239       O242   1.763   1_655  S
Cr240       O242   1.757       .  S
Cr241       O242   1.743       .  S
O243       Cr261   1.996       .  S
O243        C251   1.264       .  A
O244       Cr261   1.994   1_455  S
O244        C245   1.262       .  A
C245        O246   1.262       .  A
C245       C1246   1.510       .  S
O246       Cr262   1.995       .  S
O247       Cr262   2.080       .  S
O247        C248   1.275       .  A
C248        O249   1.238       .  A
C248       C1319   1.510       .  S
O249       Cr263   1.936       .  S
O250       Cr263   2.035   1_655  S
O250        C251   1.274       .  A
C251       C1289   1.513       .  S
O252       Cr261   2.027       .  S
O252        C260   1.267       .  A
O253       Cr261   1.970       .  S
O253        C254   1.261   1_655  A
C254        O255   1.282       .  A
C254       C2963   1.495   1_455  S
O255       Cr262   2.047       .  S
O256       Cr262   1.952       .  S
O256        C257   1.251       .  A
C257        O258   1.268       .  A
C257       C1379   1.485       .  S
O258       Cr263   2.042       .  S
O259       Cr263   1.956   1_655  S
O259        C260   1.255       .  A
C260       C1259   1.479       .  S
Cr261       O264   1.766   1_655  S
Cr262       O264   1.778       .  S
Cr263       O264   1.740       .  S
O265       Cr283   2.010   1_455  S
O265        C273   1.269       .  A
O266       Cr283   1.948       .  S
O266        C267   1.238       .  A
C267        O268   1.275       .  A
C267       C1206   1.509       .  S
O268       Cr284   2.084       .  S
O269       Cr284   1.989       .  S
O269        C270   1.264       .  A
C270        O271   1.263   1_655  A
C270       C1199   1.508       .  S
O271       Cr285   2.000       .  S
O272       Cr285   1.965       .  S
O272        C273   1.257       .  A
C273       C1226   1.473       .  S
O274       Cr283   1.970   1_455  S
O274        C282   1.261       .  A
O275       Cr283   2.052       .  S
O275        C276   1.276       .  A
C276        O277   1.245       .  A
C276       C1236   1.478       .  S
O277       Cr284   1.939       .  S
O278       Cr284   2.023       .  S
O278        C279   1.278   1_655  A
C279        O280   1.258       .  A
C279       C1216   1.474       .  S
O280       Cr285   1.947       .  S
O281       Cr285   2.030       .  S
O281        C282   1.270       .  A
C282       C1336   1.487       .  S
Cr283       O286   1.742       .  S
Cr284       O286   1.767       .  S
Cr285       O286   1.759   1_455  S
O287       Cr305   2.012   1_455  S
O287        C295   1.271       .  A
O288       Cr305   1.929       .  S
O288        C289   1.241       .  A
C289        O290   1.278       .  A
C289       C1176   1.504       .  S
O290       Cr306   2.078       .  S
O291       Cr306   1.989       .  S
O291        C292   1.262       .  A
C292        O293   1.259   1_655  A
C292       C1166   1.497       .  S
O293       Cr307   2.007       .  S
O294       Cr307   1.967       .  S
O294        C295   1.257       .  A
C295       C1219   1.486       .  S
O296       Cr305   1.962   1_455  S
O296        C304   1.259       .  A
O297       Cr305   2.056       .  S
O297        C298   1.276       .  A
C298        O299   1.252       .  A
C298       C1189   1.513       .  S
O299       Cr306   1.952       .  S
O300       Cr306   2.047       .  S
O300        C301   1.283   1_655  A
C301        O302   1.251       .  A
C301       C1229   1.498       .  S
O302       Cr307   1.923       .  S
O303       Cr307   2.013       .  S
O303        C304   1.268       .  A
C304       C1306   1.497       .  S
Cr305       O308   1.749       .  S
Cr306       O308   1.759       .  S
Cr307       O308   1.765   1_455  S
O309       Cr327   1.986       .  S
O309        C317   1.262       .  A
O310       Cr327   2.007   1_545  S
O310        C311   1.263       .  A
C311        O312   1.260       .  A
C311       C1389   1.489       .  S
O312       Cr328   1.983       .  S
O313       Cr328   2.076       .  S
O313        C314   1.278       .  A
C314        O315   1.252       .  A
C314       C1186   1.506       .  S
O315       Cr329   1.954       .  S
O316       Cr329   2.038   1_565  S
O316        C317   1.275       .  A
C317       C1149   1.510       .  S
O318       Cr327   2.031       .  S
O318        C326   1.267       .  A
O319       Cr327   1.971       .  S
O319        C320   1.263   1_565  A
C320        O321   1.282       .  A
C320       C1159   1.501   1_545  S
O321       Cr328   2.048       .  S
O322       Cr328   1.964       .  S
O322        C323   1.253       .  A
C323        O324   1.278       .  A
C323       C1209   1.502       .  S
O324       Cr329   2.051       .  S
O325       Cr329   1.977   1_565  S
O325        C326   1.260       .  A
C326       C1276   1.506       .  S
Cr327       O330   1.772   1_565  S
Cr328       O330   1.761       .  S
Cr329       O330   1.742       .  S
O331      Cr2013   2.002   1_554  S
O331        C339   1.263       .  A
O332       Cr349   2.009   1_545  S
O332        C333   1.267       .  A
C333        O334   1.257       .  A
C333       C1399   1.494       .  S
O334       Cr350   1.981       .  S
O335       Cr350   2.089       .  S
O335       C2000   1.274       .  A
C336        O337   1.228       .  A
C336       O1999   1.274   1_554  A
C336       C1239   1.506       .  S
O337      Cr2015   1.919   1_554  S
O338      Cr2015   2.035   1_564  S
O338        C339   1.270       .  A
C339       C1156   1.504       .  S
O340       Cr349   2.024       .  S
O340        C348   1.272       .  A
O341       Cr349   1.976       .  S
O341        C342   1.263   1_565  A
C342        O343   1.289       .  A
C342       C1146   1.511       .  S
O343       Cr350   2.068       .  S
O344       Cr350   1.923       .  S
O344        C345   1.245       .  A
C345        O346   1.274       .  A
C345       C1179   1.508       .  S
O346       Cr351   2.073       .  S
O347       Cr351   1.970   1_565  S
O347        C348   1.261       .  A
C348       C1256   1.495       .  S
Cr349      O1995   2.002       .  S
Cr349       O352   1.762   1_565  S
Cr350       O352   1.777       .  S
Cr351      O2001   1.919       .  S
Cr351      O2002   2.035   1_545  S
Cr351       O352   1.741       .  S
O353       Cr371   2.029       .  S
O353        C361   1.271       .  A
O354       Cr371   1.947       .  S
O354        C355   1.235       .  A
C355        O356   1.276       .  A
C355       C1119   1.508       .  S
O356       Cr372   2.088       .  S
O357       Cr372   1.968       .  S
O357        C358   1.259       .  A
C358        O359   1.273       .  A
C358       C1459   1.492       .  S
O359       Cr373   2.011       .  S
O360       Cr373   1.961       .  S
O360        C361   1.253       .  A
C361       C1139   1.494       .  S
O362       Cr371   1.956       .  S
O362        C370   1.255       .  A
O363       Cr371   2.068       .  S
O363        C364   1.280       .  A
C364        O365   1.248       .  A
C364       C1106   1.483       .  S
O365       Cr372   1.941       .  S
O366       Cr372   2.043       .  S
O366        C367   1.276       .  A
C367        O368   1.256       .  A
C367       C1126   1.498       .  S
O368       Cr373   1.949       .  S
O369       Cr373   2.033       .  S
O369        C370   1.273       .  A
C370       C1099   1.474       .  S
Cr371       O374   1.745       .  S
Cr372       O374   1.768       .  S
Cr373       O374   1.751       .  S
O375       Cr393   2.029       .  S
O375        C383   1.273       .  A
O376       Cr393   1.921       .  S
O376        C377   1.234       .  A
C377        O378   1.275       .  A
C377       C1086   1.511       .  S
O378       Cr394   2.089       .  S
O379       Cr394   2.003       .  S
O379        C380   1.267       .  A
C380        O381   1.262       .  A
C380       C1426   1.499       .  S
O381       Cr395   2.007       .  S
O382       Cr395   1.963       .  S
O382        C383   1.250       .  A
C383       C1129   1.484       .  S
O384       Cr393   1.962       .  S
O384        C392   1.258       .  A
O385       Cr393   2.065       .  S
O385        C386   1.278       .  A
C386        O387   1.252       .  A
C386       C1076   1.516       .  S
O387       Cr394   1.951       .  S
O388       Cr394   2.045       .  S
O388        C389   1.282       .  A
C389        O390   1.257       .  A
C389       C1136   1.496       .  S
O390       Cr395   1.945       .  S
O391       Cr395   2.024       .  S
O391        C392   1.271       .  A
C392       C1066   1.492       .  S
Cr393       O396   1.754       .  S
Cr394       O396   1.763       .  S
Cr395       O396   1.762       .  S
O397       Cr415   1.970       .  S
O397        C405   1.256       .  A
O398       Cr415   2.011       .  S
O398        C399   1.267       .  A
C399        O400   1.257       .  A
C399       C1026   1.467       .  S
O400       Cr416   1.967       .  S
O401       Cr416   2.082       .  S
O401        C402   1.278       .  A
C402        O403   1.246       .  A
C402       C1079   1.510       .  S
O403       Cr417   1.942       .  S
O404       Cr417   2.033       .  S
O404        C405   1.273       .  A
C405       C1046   1.514       .  S
O406       Cr415   2.026       .  S
O406        C414   1.270       .  A
O407       Cr415   1.959       .  S
O407        C408   1.258       .  A
C408        O409   1.281       .  A
C408       C1056   1.497       .  S
O409       Cr416   2.050       .  S
O410       Cr416   1.956       .  S
O410        C411   1.251       .  A
C411        O412   1.277       .  A
C411       C1116   1.497       .  S
O412       Cr417   2.056       .  S
O413       Cr417   1.966       .  S
O413        C414   1.258       .  A
C414       C1036   1.473       .  S
Cr415       O418   1.766       .  S
Cr416       O418   1.760       .  S
Cr417       O418   1.747       .  S
O419      Cr2101   1.997   1_554  S
O419        C427   1.266       .  A
O420       Cr437   2.018       .  S
O420        C421   1.267       .  A
C421        O422   1.262       .  A
C421       C1006   1.486       .  S
O422       Cr438   1.992       .  S
O423       Cr438   2.086       .  S
O423       C2088   1.273       .  A
C424        O425   1.232       .  A
C424       O2087   1.273   1_554  A
C424       C1109   1.500       .  S
O425      Cr2103   1.923   1_554  S
O426      Cr2103   2.030   1_554  S
O426        C427   1.270       .  A
C427       C1059   1.501       .  S
O428       Cr437   2.021       .  S
O428        C436   1.269       .  A
O429       Cr437   1.965       .  S
O429        C430   1.259       .  A
C430        O431   1.281       .  A
C430       C1049   1.494       .  S
O431       Cr438   2.041       .  S
O432       Cr438   1.953       .  S
O432        C433   1.248       .  A
C433        O434   1.275       .  A
C433       C1089   1.511       .  S
O434       Cr439   2.066       .  S
O435       Cr439   1.970       .  S
O435        C436   1.263       .  A
C436       C1016   1.478       .  S
Cr437      O2083   1.997       .  S
Cr437       O440   1.766       .  S
Cr438       O440   1.782       .  S
Cr439      O2089   1.923       .  S
Cr439      O2090   2.030       .  S
Cr439       O440   1.743       .  S
O441      Cr2123   2.037       .  S
O441        C449   1.272       .  A
O442      Cr2123   1.928       .  S
O442        C443   1.234       .  A
C443       O2108   1.277       .  A
C443        C996   1.507       .  S
O444       Cr460   2.094       .  S
O444       C2107   1.277       .  A
O445       Cr460   1.998       .  S
O445        C446   1.266       .  A
C446        O447   1.270       .  A
C446        C959   1.487       .  S
O447       Cr461   2.019       .  S
O448      Cr2125   1.984       .  S
O448        C449   1.262       .  A
C449        C979   1.505       .  S
O450       Cr459   1.946       .  S
O450        C458   1.253       .  A
O451       Cr459   2.060       .  S
O451        C452   1.273       .  A
C452        O453   1.251       .  A
C452        C966   1.511       .  S
O453       Cr460   1.969       .  S
O454       Cr460   2.038       .  S
O454        C455   1.279       .  A
C455        O456   1.258       .  A
C455        C989   1.517       .  S
O456       Cr461   1.970       .  S
O457       Cr461   2.025       .  S
O457        C458   1.270       .  A
C458       C1096   1.469       .  S
Cr459      O2105   2.037   1_554  S
Cr459      O2106   1.928   1_554  S
Cr459       O462   1.740       .  S
Cr460       O462   1.770       .  S
Cr461      O2112   1.984   1_554  S
Cr461       O462   1.764       .  S
O463       Cr481   2.040       .  S
O463        C471   1.274       .  A
O464       Cr481   1.930       .  S
O464        C465   1.236       .  A
C465        O466   1.275       .  A
C465        C946   1.492       .  S
O466       Cr482   2.078       .  S
O467       Cr482   1.976       .  S
O467        C468   1.259       .  A
C468        O469   1.273       .  A
C468        C926   1.489       .  S
O469       Cr483   2.016       .  S
O470       Cr483   1.980       .  S
O470        C471   1.260       .  A
C471        C986   1.501       .  S
O472       Cr481   1.952       .  S
O472        C480   1.255       .  A
O473       Cr481   2.068       .  S
O473        C474   1.275       .  A
C474        O475   1.243       .  A
C474        C939   1.484       .  S
O475       Cr482   1.936       .  S
O476       Cr482   2.044       .  S
O476        C477   1.279       .  A
C477        O478   1.262       .  A
C477        C976   1.497       .  S
O478       Cr483   1.969       .  S
O479       Cr483   2.047       .  S
O479        C480   1.275       .  A
C480       C1069   1.486       .  S
Cr481       O484   1.752       .  S
Cr482       O484   1.770       .  S
Cr483       O484   1.762       .  S
O485       Cr503   1.961       .  S
O485        C493   1.252       .  A
O486       Cr503   2.020       .  S
O486        C487   1.269       .  A
C487        O488   1.264       .  A
C487       C1529   1.484       .  S
O488       Cr504   1.973       .  S
O489       Cr504   2.096       .  S
O489        C490   1.276       .  A
C490        O491   1.233       .  A
C490        C969   1.515       .  S
O491       Cr505   1.928       .  S
O492       Cr505   2.025       .  S
O492        C493   1.271       .  A
C493        C916   1.486       .  S
O494       Cr503   2.026       .  S
O494        C502   1.270       .  A
O495       Cr503   1.961       .  S
O495        C496   1.259       .  A
C496        O497   1.277       .  A
C496        C909   1.503       .  S
O497       Cr504   2.038       .  S
O498       Cr504   1.943       .  S
O498        C499   1.249       .  A
C499        O500   1.277       .  A
C499        C949   1.477       .  S
O500       Cr505   2.050       .  S
O501       Cr505   1.964       .  S
O501        C502   1.257       .  A
C502       C1039   1.474       .  S
Cr503       O506   1.758       .  S
Cr504       O506   1.766       .  S
Cr505       O506   1.750       .  S
O507       Cr525   1.958       .  S
O507        C515   1.254       .  A
O508       Cr525   1.992       .  S
O508        C509   1.266       .  A
C509        O510   1.267       .  A
C509       C1509   1.506       .  S
O510       Cr526   2.001       .  S
O511       Cr526   2.100       .  S
O511        C512   1.282       .  A
C512        O513   1.234       .  A
C512        C936   1.498       .  S
O513       Cr527   1.913       .  S
O514       Cr527   2.045       .  S
O514        C515   1.280       .  A
C515        C906   1.490       .  S
O516       Cr525   2.025       .  S
O516        C524   1.269       .  A
O517       Cr525   1.945       .  S
O517        C518   1.254       .  A
C518        O519   1.280       .  A
C518       C2583   1.502       .  S
O519       Cr526   2.038       .  S
O520       Cr526   1.947       .  S
O520        C521   1.245       .  A
C521        O522   1.276       .  A
C521        C999   1.490       .  S
O522       Cr527   2.068       .  S
O523       Cr527   1.953       .  S
O523        C524   1.253       .  A
C524       C1019   1.483       .  S
Cr525       O528   1.759       .  S
Cr526       O528   1.767       .  S
Cr527       O528   1.745       .  S
O529       Cr547   2.022   1_455  S
O529        C537   1.271       .  A
O530       Cr547   1.929       .  S
O530        C531   1.237       .  A
C531        O532   1.279       .  A
C531        C899   1.508       .  S
O532       Cr548   2.088       .  S
O533       Cr548   1.986       .  S
O533        C534   1.262       .  A
C534        O535   1.261   1_655  A
C534       C1196   1.494       .  S
O535       Cr549   2.009       .  S
O536       Cr549   1.961       .  S
O536        C537   1.253       .  A
C537        C886   1.479       .  S
O538       Cr547   1.974   1_455  S
O538        C546   1.262       .  A
O539       Cr547   2.052       .  S
O539        C540   1.276       .  A
C540        O541   1.251       .  A
C540        C866   1.486       .  S
O541       Cr548   1.946       .  S
O542       Cr548   2.049       .  S
O542        C543   1.284   1_655  A
C543        O544   1.253       .  A
C543        C876   1.502       .  S
O544       Cr549   1.931       .  S
O545       Cr549   2.020       .  S
O545        C546   1.270       .  A
C546        C856   1.490       .  S
Cr547       O550   1.752       .  S
Cr548       O550   1.764       .  S
Cr549       O550   1.762   1_455  S
O551       Cr569   2.024   1_455  S
O551        C559   1.273       .  A
O552       Cr569   1.946       .  S
O552        C553   1.247       .  A
C553        O554   1.276       .  A
C553        C846   1.498       .  S
O554       Cr570   2.077       .  S
O555       Cr570   1.990       .  S
O555        C556   1.265       .  A
C556        O557   1.263   1_655  A
C556       C1169   1.510       .  S
O557       Cr571   2.001       .  S
O558       Cr571   1.958       .  S
O558        C559   1.256       .  A
C559        C879   1.477       .  S
O560       Cr569   1.972   1_455  S
O560        C568   1.258       .  A
O561       Cr569   2.042       .  S
O561        C562   1.276       .  A
C562        O563   1.250       .  A
C562        C836   1.494       .  S
O563       Cr570   1.958       .  S
O564       Cr570   2.024       .  S
O564        C565   1.274   1_655  A
C565        O566   1.260       .  A
C565       C2553   1.497       .  S
O566       Cr571   1.963       .  S
O567       Cr571   2.027       .  S
O567        C568   1.267       .  A
C568        C826   1.500       .  S
Cr569       O572   1.744       .  S
Cr570       O572   1.761       .  S
Cr571       O572   1.759   1_455  S
O573      Cr2255   1.985       .  S
O573        C581   1.258       .  A
O574       Cr591   2.022       .  S
O574        C575   1.270       .  A
C575        O576   1.258       .  A
C575       C1009   1.484       .  S
O576       Cr592   1.978       .  S
O577       Cr592   2.067       .  S
O577       C2242   1.274       .  A
C578        O579   1.243       .  A
C578       O2241   1.274       .  A
C578        C839   1.507       .  S
O579      Cr2257   1.957       .  S
O580      Cr2257   2.017       .  S
O580        C581   1.267       .  A
C581        C806   1.506       .  S
O582       Cr591   2.036       .  S
O582        C590   1.274       .  A
O583       Cr591   1.956       .  S
O583        C584   1.256       .  A
C584        O585   1.279       .  A
C584        C816   1.489       .  S
O585       Cr592   2.045       .  S
O586       Cr592   1.958       .  S
O586        C587   1.250       .  A
C587        O588   1.273       .  A
C587        C896   1.508       .  S
O588       Cr593   2.055       .  S
O589       Cr593   1.965       .  S
O589        C590   1.262       .  A
C590        C796   1.485       .  S
Cr591      O2237   1.985   1_554  S
Cr591       O594   1.765       .  S
Cr592       O594   1.771       .  S
Cr593      O2243   1.957   1_554  S
Cr593      O2244   2.017   1_554  S
Cr593       O594   1.747       .  S
O595       Cr613   1.972       .  S
O595        C603   1.257       .  A
O596       Cr613   2.021       .  S
O596        C597   1.269       .  A
C597        O598   1.255       .  A
C597       C1029   1.471       .  S
O598       Cr614   1.965       .  S
O599       Cr614   2.108       .  S
O599        C600   1.284       .  A
C600        O601   1.231       .  A
C600        C869   1.499       .  S
O601       Cr615   1.940       .  S
O602       Cr615   2.035       .  S
O602        C603   1.272       .  A
C603        C819   1.508       .  S
O604       Cr613   2.040       .  S
O604        C612   1.275       .  A
O605       Cr613   1.942       .  S
O605        C606   1.256       .  A
C606        O607   1.286       .  A
C606        C809   1.492       .  S
O607       Cr614   2.065       .  S
O608       Cr614   1.942       .  S
O608        C609   1.246       .  A
C609        O610   1.283       .  A
C609        C849   1.520       .  S
O610       Cr615   2.109       .  S
O611       Cr615   1.953       .  S
O611        C612   1.262       .  A
C612        C786   1.487       .  S
Cr613       O616   1.760       .  S
Cr614       O616   1.759       .  S
Cr615       O616   1.735       .  S
O617       Cr635   2.023       .  S
O617        C625   1.270       .  A
O618       Cr635   1.906       .  S
O618        C619   1.230       .  A
C619        O620   1.271       .  A
C619        C776   1.496       .  S
O620       Cr636   2.080       .  S
O621       Cr636   1.983       .  S
O621        C622   1.260       .  A
C622        O623   1.271       .  A
C622        C929   1.485       .  S
O623       Cr637   2.023       .  S
O624       Cr637   1.977       .  S
O624        C625   1.257       .  A
C625        C756   1.493       .  S
O626       Cr635   1.953       .  S
O626        C634   1.259       .  A
O627       Cr635   2.059       .  S
O627        C628   1.274       .  A
C628        O629   1.250       .  A
C628        C746   1.510       .  S
O629       Cr636   1.947       .  S
O630       Cr636   2.036       .  S
O630        C631   1.278       .  A
C631        O632   1.258       .  A
C631        C769   1.481       .  S
O632       Cr637   1.952       .  S
O633       Cr637   2.038       .  S
O633        C634   1.274       .  A
C634        C859   1.482       .  S
Cr635       O638   1.743       .  S
Cr636       O638   1.778       .  S
Cr637       O638   1.767       .  S
O639      Cr2321   2.022   1_554  S
O639        C647   1.268       .  A
O640      Cr2321   1.954   1_554  S
O640        C641   1.239       .  A
C641       O2306   1.276   1_554  A
C641        C739   1.513       .  S
O642       Cr658   2.081       .  S
O642       C2305   1.276       .  A
O643       Cr658   1.971       .  S
O643        C644   1.257       .  A
C644        O645   1.271       .  A
C644        C956   1.486       .  S
O645       Cr659   2.027       .  S
O646      Cr2323   1.967   1_554  S
O646        C647   1.252       .  A
C647        C766   1.499       .  S
O648       Cr657   1.959       .  S
O648        C656   1.260       .  A
O649       Cr657   2.080       .  S
O649        C650   1.278       .  A
C650        O651   1.246       .  A
C650        C726   1.520       .  S
O651       Cr658   1.938       .  S
O652       Cr658   2.052       .  S
O652        C653   1.284       .  A
C653        O654   1.250       .  A
C653        C759   1.477       .  S
O654       Cr659   1.939       .  S
O655       Cr659   2.031       .  S
O655        C656   1.275       .  A
C656        C829   1.511       .  S
Cr657      O2303   2.022       .  S
Cr657      O2304   1.954       .  S
Cr657       O660   1.747       .  S
Cr658       O660   1.762       .  S
Cr659      O2310   1.967       .  S
Cr659       O660   1.767       .  S
O661       Cr679   1.969       .  S
O661        C669   1.255       .  A
O662       Cr679   2.015   1_455  S
O662        C663   1.267       .  A
C663        O664   1.257       .  A
C663       C1269   1.472       .  S
O664       Cr680   1.973       .  S
O665       Cr680   2.066       .  S
O665        C666   1.276       .  A
C666        O667   1.251       .  A
C666        C749   1.499       .  S
O667       Cr681   1.948       .  S
O668       Cr681   2.021   1_655  S
O668        C669   1.268       .  A
C669        C719   1.502       .  S
O670       Cr679   2.030       .  S
O670        C678   1.274       .  A
O671       Cr679   1.939       .  S
O671        C672   1.251   1_655  A
C672        O673   1.277       .  A
C672        C706   1.502   1_455  S
O673       Cr680   2.034       .  S
O674       Cr680   1.960       .  S
O674        C675   1.250       .  A
C675        O676   1.275       .  A
C675        C736   1.496       .  S
O676       Cr681   2.045       .  S
O677       Cr681   1.960   1_655  S
O677        C678   1.260       .  A
C678        C799   1.489       .  S
Cr679       O682   1.762   1_655  S
Cr680       O682   1.762       .  S
Cr681       O682   1.749       .  S
O683       Cr701   1.971       .  S
O683        C691   1.255       .  A
O684       Cr701   2.016   1_455  S
O684        C685   1.265       .  A
C685        O686   1.263       .  A
C685       C1249   1.494       .  S
O686       Cr702   1.982       .  S
O687       Cr702   2.093       .  S
O687        C688   1.278       .  A
C688        O689   1.236       .  A
C688        C729   1.516       .  S
O689       Cr703   1.929       .  S
O690       Cr703   2.013   1_655  S
O690        C691   1.269       .  A
C691        C709   1.480       .  S
O692       Cr701   2.023       .  S
O692        C700   1.271       .  A
O693       Cr701   1.951       .  S
O693        C694   1.259   1_655  A
C694        O695   1.282       .  A
C694        C716   1.481       .  S
O695       Cr702   2.052       .  S
O696       Cr702   1.934       .  S
O696        C697   1.248       .  A
C697        O698   1.276       .  A
C697        C779   1.490       .  S
O698       Cr703   2.055       .  S
O699       Cr703   1.963   1_655  S
O699        C700   1.259       .  A
C700        C789   1.503       .  S
Cr701       O704   1.760   1_655  S
Cr702       O704   1.765       .  S
Cr703       O704   1.753       .  S
C705        C710   1.407       .  A
C705       C2370   1.415   1_455  A
C705       Br712   1.936       .  S
C706       C2369   1.415   1_654  A
C706       C2371   1.434   1_554  A
C707        C708   1.410       .  A
C707       C2370   1.434       .  A
C707      Br2378   1.938       .  S
C708        C709   1.399       .  A
C708       Br713   1.934       .  S
C709        C710   1.414   1_655  A
C710       Br711   1.923       .  S
Br714      C2371   1.938   1_554  S
C715        C716   1.409       .  A
C715        C720   1.407   1_455  A
C715       Br722   1.920       .  S
C716        C717   1.404   1_455  A
C717        C718   1.414       .  A
C717       Br724   1.930       .  S
C718        C719   1.426       .  A
C718       Br723   1.935       .  S
C719        C720   1.418       .  A
C720       Br721   1.941       .  S
C725        C726   1.414       .  A
C725        C730   1.412       .  A
C725       Br732   1.935       .  S
C726        C727   1.439       .  A
C727        C728   1.422       .  A
C727       Br734   1.940       .  S
C728        C729   1.410       .  A
C728       Br733   1.933       .  S
C729        C730   1.426       .  A
C730       Br731   1.937       .  S
C735        C736   1.401       .  A
C735        C740   1.408       .  A
C735       Br742   1.944       .  S
C736        C737   1.426       .  A
C737        C738   1.418       .  A
C737       Br744   1.936       .  S
C738        C739   1.413       .  A
C738       Br743   1.933       .  S
C739        C740   1.436       .  A
C740       Br741   1.932       .  S
C745        C746   1.421       .  A
C745        C750   1.409       .  A
C745       Br752   1.928       .  S
C746        C747   1.429       .  A
C747        C748   1.415       .  A
C747       Br754   1.937       .  S
C748        C749   1.407       .  A
C748       Br753   1.924       .  S
C749        C750   1.408       .  A
C750       Br751   1.930       .  S
C755        C756   1.421       .  A
C755        C760   1.425       .  A
C755       Br762   1.926       .  S
C756        C757   1.406       .  A
C757        C758   1.372       .  A
C757       Br764   1.910       .  S
C758        C759   1.397       .  A
C758       Br763   1.904       .  S
C759        C760   1.416       .  A
C760       Br761   1.924       .  S
C765        C766   1.410       .  A
C765        C770   1.403       .  A
C765       Br772   1.936       .  S
C766        C767   1.424       .  A
C767        C768   1.414       .  A
C767       Br774   1.933       .  S
C768        C769   1.405       .  A
C768       Br773   1.930       .  S
C769        C770   1.414       .  A
C770       Br771   1.928       .  S
C775        C776   1.406       .  A
C775        C780   1.413       .  A
C775       Br782   1.931       .  S
C776        C777   1.434       .  A
C777        C778   1.401       .  A
C777       Br784   1.943       .  S
C778        C779   1.402       .  A
C778       Br783   1.937       .  S
C779        C780   1.429       .  A
C780       Br781   1.937       .  S
C785        C786   1.412       .  A
C785        C790   1.415       .  A
C785       Br792   1.934       .  S
C786        C787   1.409       .  A
C787        C788   1.403       .  A
C787       Br794   1.937       .  S
C788        C789   1.422       .  A
C788       Br793   1.932       .  S
C789        C790   1.424       .  A
C790       Br791   1.935       .  S
C795        C796   1.412       .  A
C795        C800   1.413       .  A
C795       Br802   1.928       .  S
C796        C797   1.411       .  A
C797        C798   1.407       .  A
C797       Br804   1.932       .  S
C798        C799   1.417       .  A
C798       Br803   1.938       .  S
C799        C800   1.415       .  A
C800       Br801   1.933       .  S
C805        C806   1.413       .  A
C805        C810   1.407       .  A
C805       Br812   1.934       .  S
C806        C807   1.421       .  A
C807        C808   1.418       .  A
C807       Br814   1.934       .  S
C808        C809   1.409       .  A
C808       Br813   1.920       .  S
C809        C810   1.416       .  A
C810       Br811   1.930       .  S
C815        C816   1.415       .  A
C815        C820   1.410       .  A
C815       Br822   1.929       .  S
C816        C817   1.406       .  A
C817        C818   1.415       .  A
C817       Br824   1.926       .  S
C818        C819   1.423       .  A
C818       Br823   1.935       .  S
C819        C820   1.414       .  A
C820       Br821   1.932       .  S
C825        C826   1.412       .  A
C825        C830   1.411       .  A
C825       Br832   1.941       .  S
C826        C827   1.413       .  A
C827        C828   1.414       .  A
C827       Br834   1.933       .  S
C828        C829   1.425       .  A
C828       Br833   1.937       .  S
C829        C830   1.429       .  A
C830       Br831   1.942       .  S
C835        C836   1.401       .  A
C835        C840   1.407       .  A
C835       Br842   1.940       .  S
C836        C837   1.425       .  A
C837        C838   1.416       .  A
C837       Br844   1.936       .  S
C838        C839   1.414       .  A
C838      Br2507   1.934       .  S
C839        C840   1.434       .  A
C840       Br841   1.933       .  S
Br843      C2502   1.934   1_554  S
C845        C846   1.403       .  A
C845        C850   1.416       .  A
C845       Br852   1.916       .  S
C846        C847   1.404       .  A
C847        C848   1.412       .  A
C847       Br854   1.923       .  S
C848        C849   1.418       .  A
C848       Br853   1.902       .  S
C849        C850   1.428       .  A
C850       Br851   1.928       .  S
C855        C856   1.417       .  A
C855        C860   1.412       .  A
C855       Br862   1.927       .  S
C856        C857   1.415       .  A
C857        C858   1.407       .  A
C857       Br864   1.935       .  S
C858        C859   1.410       .  A
C858       Br863   1.933       .  S
C859        C860   1.409       .  A
C860       Br861   1.931       .  S
C865        C866   1.425       .  A
C865        C870   1.416       .  A
C865       Br872   1.929       .  S
C866        C867   1.397       .  A
C867        C868   1.406       .  A
C867       Br874   1.940       .  S
C868        C869   1.435       .  A
C868       Br873   1.926       .  S
C869        C870   1.403       .  A
C870       Br871   1.927       .  S
C875        C876   1.415   1_655  A
C875        C880   1.407       .  A
C875       Br882   1.938       .  S
C876        C877   1.435       .  A
C877        C878   1.409       .  A
C877       Br884   1.939       .  S
C878        C879   1.398       .  A
C878       Br883   1.935       .  S
C879        C880   1.412   1_455  A
C880       Br881   1.920       .  S
C885        C886   1.400       .  A
C885        C890   1.407       .  A
C885       Br892   1.927       .  S
C886        C887   1.416       .  A
C887        C888   1.404       .  A
C887       Br894   1.920   1_455  S
C888        C889   1.415       .  A
C888       Br893   1.942   1_455  S
C889       C2229   1.497   1_554  S
C889        C890   1.422       .  A
C890      Br2555   1.923   1_554  S
Br891      C2554   1.923       .  S
C895        C896   1.434       .  A
C895        C900   1.418       .  A
C895       Br902   1.937       .  S
C896        C897   1.414       .  A
C897        C898   1.409       .  A
C897       Br904   1.937       .  S
C898        C899   1.425       .  A
C898       Br903   1.940       .  S
C899        C900   1.404       .  A
C900       Br901   1.928       .  S
C905        C906   1.404       .  A
C905        C910   1.415       .  A
C905       Br912   1.927       .  S
C906        C907   1.415       .  A
C907        C908   1.407       .  A
C907       Br914   1.917       .  S
C908        C909   1.415       .  A
C908       Br913   1.938       .  S
C909        C910   1.426       .  A
C910       Br911   1.934       .  S
C915        C916   1.401       .  A
C915        C920   1.412       .  A
C915       Br922   1.930       .  S
C916        C917   1.417       .  A
C917        C918   1.407       .  A
C917       Br924   1.921       .  S
C918        C919   1.414       .  A
C918       Br923   1.941       .  S
C919       C2182   1.502   1_554  S
C919        C920   1.431       .  A
C920      Br2585   1.938   1_554  S
Br921      C2584   1.938       .  S
C925        C926   1.407       .  A
C925        C930   1.400       .  A
C925       Br932   1.939       .  S
C926        C927   1.419       .  A
C927        C928   1.413       .  A
C927       Br934   1.925       .  S
C928        C929   1.407       .  A
C928       Br933   1.927       .  S
C929        C930   1.406       .  A
C930       Br931   1.898       .  S
C935        C936   1.403       .  A
C935        C940   1.415       .  A
C935       Br942   1.929       .  S
C936        C937   1.437       .  A
C937        C938   1.407       .  A
C937       Br944   1.935       .  S
C938        C939   1.395       .  A
C938       Br943   1.938       .  S
C939        C940   1.425       .  A
C940       Br941   1.931       .  S
C945        C946   1.405       .  A
C945        C950   1.411       .  A
C945       Br952   1.931       .  S
C946        C947   1.433       .  A
C947        C948   1.403       .  A
C947       Br954   1.932       .  S
C948        C949   1.396       .  A
C948       Br953   1.940       .  S
C949        C950   1.423       .  A
C950       Br951   1.933       .  S
C955        C956   1.410       .  A
C955        C960   1.410       .  A
C955       Br962   1.931       .  S
C956       C2621   1.415       .  A
C957        C958   1.412       .  A
C957       C2620   1.415   1_554  A
C957       Br964   1.933       .  S
C958        C959   1.409       .  A
C958       Br963   1.924       .  S
C959       C2624   1.409   1_554  A
C960       C2623   1.409       .  A
C960       Br961   1.916       .  S
C965        C966   1.408       .  A
C965        C970   1.405       .  A
C965       Br972   1.936       .  S
C966        C967   1.431       .  A
C967        C968   1.423       .  A
C967       Br974   1.933       .  S
C968        C969   1.412       .  A
C968       Br973   1.929       .  S
C969        C970   1.429       .  A
C970       Br971   1.942       .  S
C975        C976   1.403       .  A
C975        C980   1.400       .  A
C975       Br982   1.923       .  S
C976        C977   1.417       .  A
C977        C978   1.422       .  A
C977       Br984   1.927       .  S
C978        C979   1.418       .  A
C978       Br983   1.927       .  S
C979        C980   1.412       .  A
C980       Br981   1.910       .  S
C985        C986   1.405       .  A
C985        C990   1.423       .  A
C985       Br992   1.929       .  S
C986        C987   1.410       .  A
C987        C988   1.407       .  A
C987       Br994   1.904       .  S
C988        C989   1.415       .  A
C988       Br993   1.938       .  S
C989        C990   1.435       .  A
C990       Br991   1.935       .  S
C995        C996   1.406       .  A
C995       C1000   1.417       .  A
C995      Br1002   1.930       .  S
C996        C997   1.438       .  A
C997        C998   1.408       .  A
C997      Br1004   1.935       .  S
C998        C999   1.397       .  A
C998      Br1003   1.940       .  S
C999       C1000   1.426       .  A
C1000     Br1001   1.933       .  S
C1005      C1010   1.408       .  A
C1005      C2670   1.408   1_554  A
C1005     Br1012   1.913       .  S
C1006      C1007   1.409       .  A
C1006      C2669   1.408       .  A
C1007      C1008   1.414       .  A
C1007     Br1014   1.926       .  S
C1008      C2673   1.415       .  A
C1008     Br1013   1.930       .  S
C1009      C1010   1.406       .  A
C1009      C2672   1.415   1_554  A
C1010     Br1011   1.927       .  S
C1015      C1016   1.412       .  A
C1015      C1020   1.410       .  A
C1015     Br1022   1.926       .  S
C1016      C1017   1.407       .  A
C1017      C1018   1.406       .  A
C1017     Br2688   1.932       .  S
C1018      C1019   1.416       .  A
C1018     Br1023   1.935       .  S
C1019      C1020   1.412       .  A
C1020     Br1021   1.929       .  S
Br1024     C2681   1.932   1_554  S
C1025      C1026   1.409       .  A
C1025      C1030   1.405       .  A
C1025     Br1032   1.931       .  S
C1026      C1027   1.408       .  A
C1027      C1028   1.405       .  A
C1027     Br1034   1.930       .  S
C1028      C1029   1.407       .  A
C1028     Br1033   1.927       .  S
C1029      C1030   1.407       .  A
C1030     Br1031   1.921       .  S
C1035      C1036   1.407       .  A
C1035      C1040   1.406       .  A
C1035     Br1042   1.928       .  S
C1036      C1037   1.410       .  A
C1037      C1038   1.409       .  A
C1037     Br1044   1.929       .  S
C1038      C1039   1.408       .  A
C1038     Br1043   1.927       .  S
C1039      C1040   1.408       .  A
C1040     Br1041   1.924       .  S
C1045      C1046   1.419       .  A
C1045      C1050   1.413       .  A
C1045     Br1052   1.938       .  S
C1046      C1047   1.429       .  A
C1047      C1048   1.417       .  A
C1047     Br1054   1.936       .  S
C1048      C1049   1.404       .  A
C1048     Br1053   1.929       .  S
C1049      C1050   1.416       .  A
C1050     Br1051   1.927       .  S
C1055      C1056   1.424       .  A
C1055      C1060   1.424       .  A
C1055     Br1062   1.927       .  S
C1056      C1057   1.398       .  A
C1057      C1058   1.392       .  A
C1057     Br1064   1.919       .  S
C1058      C1059   1.411       .  A
C1058     Br1063   1.904       .  S
C1059      C1060   1.413       .  A
C1060     Br1061   1.925       .  S
C1065      C1066   1.418       .  A
C1065      C1070   1.406       .  A
C1065     Br1072   1.941       .  S
C1066      C1067   1.417       .  A
C1067      C1068   1.415       .  A
C1067     Br1074   1.930       .  S
C1068      C1069   1.410       .  A
C1068     Br1073   1.925       .  S
C1069      C1070   1.410       .  A
C1070     Br1071   1.932       .  S
C1075      C1076   1.431       .  A
C1075      C1080   1.415       .  A
C1075     Br1082   1.941       .  S
C1076      C1077   1.419       .  A
C1077      C1078   1.414       .  A
C1077     Br1084   1.932       .  S
C1078      C1079   1.416       .  A
C1078     Br1083   1.927       .  S
C1079      C1080   1.407       .  A
C1080     Br1081   1.920       .  S
C1085      C1086   1.411       .  A
C1085      C1090   1.422       .  A
C1085     Br1092   1.931       .  S
C1086      C1087   1.426       .  A
C1087      C1088   1.404       .  A
C1087     Br1094   1.939       .  S
C1088      C1089   1.411       .  A
C1088     Br1093   1.933       .  S
C1089      C1090   1.436       .  A
C1090     Br1091   1.936       .  S
C1095      C1096   1.412       .  A
C1095      C1100   1.405       .  A
C1095     Br1102   1.935       .  S
C1096      C1097   1.407       .  A
C1097      C1098   1.406       .  A
C1097     Br2768   1.932   1_554  S
C1098      C1099   1.408       .  A
C1098     Br1103   1.917       .  S
C1099      C1100   1.408       .  A
C1100     Br1101   1.925       .  S
Br1104     C2761   1.932       .  S
C1105      C1106   1.395       .  A
C1105      C1110   1.406       .  A
C1105     Br1112   1.940       .  S
C1106      C1107   1.424       .  A
C1107      C1108   1.413       .  A
C1107     Br1114   1.933       .  S
C1108      C1109   1.405       .  A
C1108     Br1113   1.930       .  S
C1109      C1110   1.438       .  A
C1110     Br2775   1.937       .  S
Br1111     C2774   1.937       .  S
C1115      C1116   1.426       .  A
C1115      C1120   1.416       .  A
C1115     Br1122   1.933       .  S
C1116      C1117   1.402       .  A
C1117      C1118   1.410       .  A
C1117     Br1124   1.941       .  S
C1118      C1119   1.436       .  A
C1118     Br1123   1.935       .  S
C1119      C1120   1.408       .  A
C1120     Br1121   1.933       .  S
C1125      C1130   1.410       .  A
C1125      C2790   1.422       .  A
C1125     Br2796   1.935       .  S
C1126      C2789   1.422   1_554  A
C1126      C2791   1.412   1_554  A
C1127      C1128   1.409       .  A
C1127      C2790   1.412       .  A
C1127     Br1134   1.935       .  S
C1128      C1129   1.417       .  A
C1128     Br1133   1.922       .  S
C1129      C1130   1.402       .  A
C1130     Br1131   1.927       .  S
Br1132     C2789   1.935   1_554  S
C1135      C1136   1.425       .  A
C1135      C1140   1.409       .  A
C1135     Br1142   1.928       .  S
C1136      C1137   1.410       .  A
C1137      C1138   1.409       .  A
C1137     Br1144   1.938       .  S
C1138      C1139   1.419       .  A
C1138     Br1143   1.918       .  S
C1139      C1140   1.404       .  A
C1140     Br1141   1.928       .  S
C1145      C1146   1.411   1_565  A
C1145      C1150   1.421       .  A
C1145     Br1152   1.925       .  S
C1146      C1147   1.417       .  A
C1147      C1148   1.412       .  A
C1147     Br1154   1.892       .  S
C1148      C1149   1.410   1_545  A
C1148     Br1153   1.944       .  S
C1149      C1150   1.419       .  A
C1150     Br1151   1.921       .  S
C1155      C1156   1.412   1_545  A
C1155      C1160   1.391       .  A
C1155     Br1162   1.907       .  S
C1156      C1157   1.414       .  A
C1157      C1158   1.426       .  A
C1157     Br1164   1.925       .  S
C1158      C1159   1.424       .  A
C1158     Br1163   1.926       .  S
C1159      C1160   1.400   1_565  A
C1160     Br1161   1.922       .  S
C1165      C1166   1.413       .  A
C1165      C1170   1.414       .  A
C1165     Br1172   1.935       .  S
C1166      C1167   1.417   1_655  A
C1167      C1168   1.408       .  A
C1167     Br1174   1.942       .  S
C1168      C1169   1.426   1_455  A
C1168     Br1173   1.946       .  S
C1169      C1170   1.424       .  A
C1170     Br1171   1.937       .  S
C1175      C1176   1.418       .  A
C1175      C1180   1.402       .  A
C1175     Br1182   1.926       .  S
C1176      C1177   1.406       .  A
C1177      C1178   1.420       .  A
C1177     Br1184   1.930       .  S
C1178      C1179   1.438       .  A
C1178     Br1183   1.936       .  S
C1179      C1180   1.410       .  A
C1180     Br1181   1.930       .  S
C1185      C1186   1.407       .  A
C1185      C1190   1.415       .  A
C1185     Br1192   1.923       .  S
C1186      C1187   1.406       .  A
C1187      C1188   1.415       .  A
C1187     Br1194   1.909       .  S
C1188      C1189   1.425       .  A
C1188     Br1193   1.939       .  S
C1189      C1190   1.418       .  A
C1190     Br1191   1.919       .  S
C1195      C1196   1.414       .  A
C1195      C1200   1.416       .  A
C1195     Br1202   1.934       .  S
C1196      C1197   1.415   1_655  A
C1197      C1198   1.405       .  A
C1197     Br1204   1.937       .  S
C1198      C1199   1.422   1_455  A
C1198     Br1203   1.944       .  S
C1199      C1200   1.423       .  A
C1200     Br1201   1.935       .  S
C1205      C1206   1.410       .  A
C1205      C1210   1.420       .  A
C1205     Br1212   1.931       .  S
C1206      C1207   1.434       .  A
C1207      C1208   1.408       .  A
C1207     Br1214   1.935       .  S
C1208      C1209   1.400       .  A
C1208     Br1213   1.933       .  S
C1209      C1210   1.427       .  A
C1210     Br1211   1.931       .  S
C1215      C1220   1.405       .  A
C1215      C2880   1.417       .  A
C1215     Br2886   1.927       .  S
C1216      C2879   1.417   1_554  A
C1216      C2881   1.400   1_554  A
C1217      C1218   1.401       .  A
C1217      C2880   1.400       .  A
C1217     Br1224   1.936   1_455  S
C1218      C1219   1.422       .  A
C1218     Br1223   1.913   1_455  S
C1219      C1220   1.409       .  A
C1220     Br1221   1.933       .  S
Br1222     C2879   1.927   1_554  S
C1225      C1226   1.397       .  A
C1225      C1230   1.407       .  A
C1225     Br1232   1.939       .  S
C1226      C1227   1.412       .  A
C1227      C1228   1.405   1_455  A
C1227     Br1234   1.919   1_455  S
C1228      C1229   1.413   1_655  A
C1228     Br1233   1.939       .  S
C1229      C1230   1.436       .  A
C1230     Br1231   1.936       .  S
C1235      C1236   1.392       .  A
C1235      C1240   1.404       .  A
C1235     Br1242   1.946       .  S
C1236      C1237   1.424       .  A
C1237      C1238   1.413       .  A
C1237     Br1244   1.934       .  S
C1238      C1239   1.406       .  A
C1238     Br1243   1.931       .  S
C1239      C1240   1.444       .  A
C1240     Br2905   1.934       .  S
Br1241     C2904   1.934       .  S
C1245      C1246   1.427       .  A
C1245      C1250   1.416       .  A
C1245     Br1252   1.936       .  S
C1246      C1247   1.427       .  A
C1247      C1248   1.407   1_455  A
C1247     Br1254   1.944   1_455  S
C1248      C1249   1.412   1_655  A
C1248     Br1253   1.935       .  S
C1249      C1250   1.411       .  A
C1250     Br1251   1.935       .  S
C1255      C1256   1.416       .  A
C1255      C1260   1.400       .  A
C1255     Br1262   1.923       .  S
C1256      C1257   1.419       .  A
C1257      C1258   1.415       .  A
C1257     Br2928   1.933       .  S
C1258      C1259   1.411       .  A
C1258     Br1263   1.927       .  S
C1259      C1260   1.403       .  A
C1260     Br1261   1.933       .  S
Br1264     C2921   1.933   1_554  S
C1265      C1266   1.408       .  A
C1265      C1270   1.406       .  A
C1265     Br1272   1.930       .  S
C1266      C1267   1.409       .  A
C1267      C1268   1.406       .  A
C1267     Br1274   1.930       .  S
C1268      C1269   1.408       .  A
C1268     Br1273   1.927       .  S
C1269      C1270   1.408       .  A
C1270     Br1271   1.922       .  S
C1275      C1276   1.425       .  A
C1275      C1280   1.422       .  A
C1275     Br1282   1.933       .  S
C1276      C1277   1.415       .  A
C1277      C1278   1.399       .  A
C1277     Br1284   1.934       .  S
C1278      C1279   1.416       .  A
C1278     Br1283   1.938       .  S
C1279      C1280   1.418       .  A
C1280     Br1281   1.932       .  S
C1285      C1286   1.418   1_655  A
C1285      C1290   1.429       .  A
C1285     Br1292   1.925       .  S
C1286      C1287   1.400       .  A
C1287      C1288   1.396       .  A
C1287     Br1294   1.910       .  S
C1288      C1289   1.411   1_455  A
C1288     Br1293   1.910       .  S
C1289      C1290   1.422       .  A
C1290     Br1291   1.926       .  S
C1295      C1296   1.431       .  A
C1295      C1300   1.418       .  A
C1295     Br1302   1.936       .  S
C1296      C1297   1.423       .  A
C1297      C1298   1.415       .  A
C1297     Br1304   1.938       .  S
C1298      C1299   1.414       .  A
C1298     Br2967   1.930   1_654  S
C1299      C1918   1.495   1_654  S
C1299      C1300   1.404       .  A
C1300     Br1301   1.930       .  S
Br1303     C2962   1.930   1_455  S
C1305      C1306   1.424       .  A
C1305      C1310   1.410       .  A
C1305     Br1312   1.935       .  S
C1306      C1307   1.422       .  A
C1307      C1308   1.405       .  A
C1307     Br1314   1.940       .  S
C1308      C1309   1.407       .  A
C1308     Br1313   1.931       .  S
C1309      C1310   1.404       .  A
C1310     Br1311   1.923       .  S
C1315      C1316   1.396       .  A
C1315      C1320   1.407       .  A
C1315     Br1322   1.943       .  S
C1316      C1317   1.423       .  A
C1317      C1318   1.417       .  A
C1317     Br1324   1.931       .  S
C1318      C1319   1.409       .  A
C1318     Br1323   1.931       .  S
C1319      C1320   1.439       .  A
C1320     Br1321   1.930       .  S
C1325      C1326   1.430       .  A
C1325      C1330   1.398       .  A
C1325     Br1332   1.930       .  S
C1326      C1327   1.402       .  A
C1327      C1328   1.413       .  A
C1327     Br1334   1.928       .  S
C1328      C1329   1.428       .  A
C1328     Br1333   1.939       .  S
C1329      C1330   1.393       .  A
C1330     Br1331   1.934       .  S
C1335      C1336   1.410       .  A
C1335      C1340   1.408       .  A
C1335     Br1342   1.931       .  S
C1336      C1337   1.413       .  A
C1337      C1338   1.413       .  A
C1337     Br1344   1.931       .  S
C1338      C1339   1.415       .  A
C1338     Br1343   1.930       .  S
C1339      C1340   1.415       .  A
C1340     Br1341   1.935       .  S
C1345      C1346   1.419       .  A
C1345      C1350   1.419       .  A
C1345     Br1352   1.930       .  S
C1346      C1347   1.409       .  A
C1347      C1348   1.411       .  A
C1347     Br1354   1.907       .  S
C1348      C1349   1.412       .  A
C1348     Br1353   1.924       .  S
C1349      C1350   1.412       .  A
C1350     Br1351   1.912       .  S
C1355      C1356   1.416       .  A
C1355      C1360   1.410   1_545  A
C1355     Br1362   1.917   1_545  S
C1356      C1357   1.403       .  A
C1357      C1358   1.414       .  A
C1357     Br1364   1.928       .  S
C1358      C1359   1.422       .  A
C1358     Br1363   1.920       .  S
C1359      C1360   1.418   1_545  A
C1360     Br1361   1.941       .  S
C1365      C1366   1.412   1_565  A
C1365      C1370   1.409       .  A
C1365     Br1372   1.953       .  S
C1366      C1367   1.426       .  A
C1367      C1368   1.415       .  A
C1367     Br1374   1.935       .  S
C1368      C1369   1.407       .  A
C1368     Br1373   1.933       .  S
C1369      C1370   1.425   1_545  A
C1370     Br1371   1.919       .  S
C1375      C1376   1.407       .  A
C1375      C1380   1.412       .  A
C1375     Br1382   1.932       .  S
C1376      C1377   1.435       .  A
C1377      C1378   1.406       .  A
C1377     Br1384   1.942       .  S
C1378      C1379   1.404       .  A
C1378     Br1383   1.942       .  S
C1379      C1380   1.424       .  A
C1380     Br1381   1.934       .  S
C1385      C1386   1.424       .  A
C1385      C1390   1.413       .  A
C1385     Br1392   1.938       .  S
C1386      C1387   1.420       .  A
C1387      C1388   1.402       .  A
C1387     Br1394   1.943   1_545  S
C1388      C1389   1.413       .  A
C1388     Br1393   1.932   1_545  S
C1389      C1390   1.414       .  A
C1390     Br1391   1.936       .  S
C1395      C1400   1.405       .  A
C1395      C3060   1.417       .  A
C1395     Br1402   1.917   1_545  S
C1396      C1397   1.411       .  A
C1396      C3059   1.417   1_554  A
C1397      C1398   1.418       .  A
C1397     Br1404   1.929       .  S
C1398      C3063   1.419   1_554  A
C1398     Br1403   1.931       .  S
C1399      C1400   1.408       .  A
C1399      C3062   1.419       .  A
C1400     Br1401   1.935       .  S
C1405      C1406   1.400       .  A
C1405      C1410   1.410       .  A
C1405     Br1412   1.932       .  S
C1406      C1407   1.417   1_565  A
C1407      C1408   1.403       .  A
C1407     Br1414   1.923       .  S
C1408      C1409   1.415       .  A
C1408     Br1413   1.940       .  S
C1409      C1410   1.427   1_545  A
C1410     Br1411   1.927       .  S
C1415      C1416   1.413   1_545  A
C1415      C1420   1.408       .  A
C1415     Br1422   1.924       .  S
C1416      C1417   1.400       .  A
C1417      C1418   1.411       .  A
C1417     Br1424   1.936       .  S
C1418      C1419   1.435       .  A
C1418     Br1423   1.938       .  S
C1419      C1420   1.415   1_565  A
C1420     Br1421   1.937       .  S
C1425      C1426   1.413       .  A
C1425      C1430   1.419       .  A
C1425     Br1432   1.934       .  S
C1426      C1427   1.417       .  A
C1427      C1428   1.406       .  A
C1427     Br1434   1.936       .  S
C1428      C1429   1.423       .  A
C1428     Br1433   1.944       .  S
C1429      C1430   1.427       .  A
C1430     Br1431   1.935       .  S
C1435      C1436   1.399       .  A
C1435      C1440   1.408       .  A
C1435     Br1442   1.940       .  S
C1436      C1437   1.426       .  A
C1437      C1438   1.418       .  A
C1437     Br1444   1.933       .  S
C1438      C1439   1.407       .  A
C1438     Br1443   1.929       .  S
C1439      C1440   1.438       .  A
C1440     Br1441   1.938       .  S
C1445      C1446   1.436       .  A
C1445      C1450   1.409       .  A
C1445     Br1452   1.934       .  S
C1446      C1447   1.407       .  A
C1447      C1448   1.416       .  A
C1447     Br1454   1.930       .  S
C1448      C1449   1.425       .  A
C1448     Br1453   1.932       .  S
C1449      C1450   1.399       .  A
C1450     Br1451   1.938       .  S
C1455      C1456   1.415       .  A
C1455      C1460   1.396       .  A
C1455     Br1462   1.921       .  S
C1456      C1457   1.412       .  A
C1457      C1458   1.417       .  A
C1457     Br1464   1.931       .  S
C1458      C1459   1.422       .  A
C1458     Br1463   1.934       .  S
C1459      C1460   1.407       .  A
C1460     Br1461   1.941       .  S
C1465      C1466   1.422       .  A
C1465      C1470   1.405       .  A
C1465     Br1472   1.938       .  S
C1466      C1467   1.404       .  A
C1467      C1468   1.417       .  A
C1467     Br1474   1.928       .  S
C1468      C1469   1.437       .  A
C1468     Br1473   1.940       .  S
C1469      C1470   1.414       .  A
C1470     Br1471   1.937       .  S
C1475      C1476   1.402       .  A
C1475      C1480   1.413       .  A
C1475     Br1482   1.935       .  S
C1476      C1477   1.412       .  A
C1477      C1478   1.407       .  A
C1477     Br1484   1.932       .  S
C1478      C1479   1.416       .  A
C1478     Br1483   1.936       .  S
C1479      C1480   1.432       .  A
C1480     Br1481   1.933       .  S
C1485      C1486   1.398       .  A
C1485      C1490   1.410       .  A
C1485     Br1492   1.935       .  S
C1486      C1487   1.415       .  A
C1487      C1488   1.409       .  A
C1487     Br1494   1.927       .  S
C1488      C1489   1.418       .  A
C1488     Br1493   1.939       .  S
C1489      C1789   1.505   1_554  S
C1489      C1490   1.437       .  A
C1490     Br3155   1.941   1_554  S
Br1491     C3154   1.941       .  S
C1495      C1496   1.409       .  A
C1495      C1500   1.420       .  A
C1495     Br1502   1.931       .  S
C1496      C1497   1.437       .  A
C1497      C1498   1.409       .  A
C1497     Br1504   1.934       .  S
C1498      C1499   1.402       .  A
C1498     Br1503   1.942       .  S
C1499      C1500   1.428       .  A
C1500     Br1501   1.934       .  S
C1505      C1506   1.414       .  A
C1505      C1510   1.400       .  A
C1505     Br1512   1.931       .  S
C1506      C1507   1.415       .  A
C1507      C1508   1.421       .  A
C1507     Br1514   1.931       .  S
C1508      C1509   1.421       .  A
C1508     Br1513   1.929       .  S
C1509      C1510   1.417       .  A
C1510     Br1511   1.943       .  S
C1515      C1516   1.430       .  A
C1515      C1520   1.410       .  A
C1515     Br1522   1.945       .  S
C1516      C1517   1.421       .  A
C1517      C1518   1.414       .  A
C1517     Br1524   1.938       .  S
C1518      C1519   1.419       .  A
C1518     Br1523   1.935       .  S
C1519      C1520   1.413       .  A
C1520     Br1521   1.942       .  S
C1525      C1526   1.417       .  A
C1525      C1530   1.401       .  A
C1525     Br1532   1.943       .  S
C1526      C1527   1.421       .  A
C1527      C1528   1.413       .  A
C1527     Br1534   1.934       .  S
C1528      C1529   1.412       .  A
C1528     Br1533   1.934       .  S
C1529      C1530   1.411       .  A
C1530     Br1531   1.928       .  S
C1535      C1536   1.417       .  A
C1535      C1540   1.404       .  A
C1535     Br1542   1.939       .  S
C1536      C1537   1.417       .  A
C1537      C1538   1.412       .  A
C1537     Br1544   1.933       .  S
C1538      C1539   1.416       .  A
C1538     Br1543   1.934       .  S
C1539      C1540   1.409       .  A
C1540     Br1541   1.927       .  S
C1545      C1550   1.397       .  A
C1545      C3210   1.416       .  A
C1545     Br3216   1.924       .  S
C1546      C3209   1.416   1_554  A
C1546      C3211   1.403   1_554  A
C1547      C1548   1.409       .  A
C1547      C3210   1.403       .  A
C1547     Br1554   1.933       .  S
C1548      C1549   1.423       .  A
C1548     Br1553   1.913       .  S
C1549      C1550   1.404       .  A
C1550     Br1551   1.936       .  S
Br1552     C3209   1.924   1_554  S
C1555      C1556   1.431       .  A
C1555      C1560   1.411       .  A
C1555     Br1562   1.930       .  S
C1556      C1557   1.414       .  A
C1557      C1558   1.404       .  A
C1557     Br1564   1.942       .  S
C1558      C1559   1.414       .  A
C1558     Br1563   1.918       .  S
C1559      C1560   1.401       .  A
C1560     Br1561   1.937       .  S
C1565      C1570   1.411   1_556  A
C1565      C3230   1.421   1_545  A
C1565     Br1572   1.945       .  S
C1566      C1567   1.418       .  A
C1566      C3229   1.421   1_565  A
C1567      C1568   1.418       .  A
C1567     Br1574   1.936       .  S
C1568      C3233   1.422       .  A
C1568     Br1573   1.936       .  S
C1569      C1570   1.426   1_565  A
C1569      C3232   1.422       .  A
C1570     Br1571   1.946       .  S
C1575      C1576   1.414       .  A
C1575      C1580   1.412       .  A
C1575     Br1582   1.928       .  S
C1576      C1577   1.410       .  A
C1577      C1578   1.410       .  A
C1577     Br1584   1.933       .  S
C1578      C1579   1.416       .  A
C1578     Br1583   1.934       .  S
C1579      C1580   1.415       .  A
C1580     Br1581   1.933       .  S
C1585      C1586   1.427       .  A
C1585      C1590   1.417       .  A
C1585     Br1592   1.939       .  S
C1586      C1587   1.407       .  A
C1587      C1588   1.411       .  A
C1587     Br1594   1.945       .  S
C1588      C1589   1.437       .  A
C1588     Br1593   1.940       .  S
C1589      C1590   1.414       .  A
C1590     Br1591   1.934       .  S
C1595      C1596   1.402       .  A
C1595      C1600   1.415       .  A
C1595     Br3266   1.909   1_554  S
C1596      C1597   1.396       .  A
C1597      C1598   1.411       .  A
C1597     Br1604   1.934       .  S
C1598      C1599   1.423       .  A
C1598     Br1603   1.878       .  S
C1599      C1600   1.424       .  A
C1600     Br3265   1.929   1_554  S
Br1601     C3264   1.929       .  S
Br1602     C3259   1.909       .  S
C1605      C1606   1.415       .  A
C1605      C1610   1.411       .  A
C1605     Br1612   1.931       .  S
C1606      C1607   1.399       .  A
C1607      C1608   1.398       .  A
C1607     Br1614   1.935       .  S
C1608      C1609   1.408       .  A
C1608     Br1613   1.894       .  S
C1609      C1610   1.410       .  A
C1610     Br1611   1.929       .  S
C1615      C1616   1.410       .  A
C1615      C1620   1.414       .  A
C1615     Br1622   1.932       .  S
C1616      C1617   1.405       .  A
C1617      C1618   1.401       .  A
C1617     Br1624   1.936       .  S
C1618      C1619   1.416       .  A
C1618     Br1623   1.919       .  S
C1619      C1620   1.421       .  A
C1620     Br1621   1.934       .  S
C1625      C1626   1.395       .  A
C1625      C1630   1.400       .  A
C1625     Br1632   1.939       .  S
C1626      C1627   1.425       .  A
C1627      C1628   1.414       .  A
C1627     Br1634   1.929       .  S
C1628      C1629   1.403       .  A
C1628     Br1633   1.927       .  S
C1629      C1630   1.434       .  A
C1630     Br1631   1.925       .  S
C1635      C1636   1.423       .  A
C1635      C1640   1.412       .  A
C1635     Br1642   1.938       .  S
C1636      C1637   1.428       .  A
C1637      C1638   1.416       .  A
C1637     Br1644   1.935       .  S
C1638      C1639   1.403       .  A
C1638     Br1643   1.931       .  S
C1639      C1640   1.412       .  A
C1640     Br1641   1.933       .  S
C1645      C1646   1.415   1_565  A
C1645      C1650   1.410   1_565  A
C1645     Br1652   1.902       .  S
C1646      C1647   1.411       .  A
C1647      C1648   1.421       .  A
C1647     Br1654   1.928       .  S
C1648      C1649   1.422       .  A
C1648     Br1653   1.924       .  S
C1649      C1650   1.418       .  A
C1650     Br1651   1.950   1_545  S
C1655      C1656   1.422       .  A
C1655      C1660   1.415       .  A
C1655     Br1662   1.913       .  S
C1656      C1657   1.414       .  A
C1657      C1658   1.385       .  A
C1657     Br1664   1.927       .  S
C1658      C1659   1.410       .  A
C1658     Br1663   1.940       .  S
C1659      C1660   1.411       .  A
C1660     Br1661   1.922       .  S
O1665     Cr1683   2.022       .  S
O1665      C1673   1.271       .  A
O1666     Cr1683   1.942   1_565  S
O1666      C1667   1.242       .  A
C1667      O1668   1.271       .  A
C1667      C3323   1.480       .  S
O1668     Cr1684   2.057       .  S
O1669     Cr1684   1.958       .  S
O1669      C1670   1.247       .  A
C1670      O1671   1.265   1_565  A
C1670      C3270   1.471       .  S
O1671     Cr1685   2.009       .  S
O1672     Cr1685   1.980       .  S
O1672      C1673   1.259       .  A
C1673      C3300   1.512       .  S
O1674     Cr1683   1.969       .  S
O1674      C1682   1.260       .  A
O1675     Cr1683   2.039   1_565  S
O1675      C1676   1.270       .  A
C1676      O1677   1.246       .  A
C1676      C3290   1.479       .  S
O1677     Cr1684   1.909       .  S
O1678     Cr1684   2.075       .  S
O1678      C1679   1.291   1_565  A
C1679      O1680   1.261       .  A
C1679      C3310   1.506       .  S
O1680     Cr1685   1.961       .  S
O1681     Cr1685   2.022       .  S
O1681      C1682   1.269       .  A
C1682      C3283   1.495       .  S
Cr1683     O1686   1.745   1_545  S
Cr1684     O1686   1.775       .  S
Cr1685     O1686   1.768   1_545  S
O1687      C1695   1.267       .  A
O1688      C1689   1.252       .  A
C1689      C3260   1.491       .  S
O1690     Cr1706   2.062       .  S
O1691     Cr1706   2.003       .  S
O1691      C1692   1.262       .  A
C1692      O1693   1.259   1_565  A
C1692      C3230   1.508       .  S
O1693     Cr1707   2.003       .  S
O1694      C1695   1.264       .  A
C1695      C3313   1.511       .  S
O1696     Cr1705   1.980   1_545  S
O1696      C1704   1.264       .  A
O1697     Cr1705   2.034       .  S
O1697      C1698   1.273       .  A
C1698      O1699   1.254       .  A
C1698      C3250   1.496       .  S
O1699     Cr1706   1.961       .  S
O1700     Cr1706   2.047       .  S
O1700      C1701   1.281   1_565  A
C1701      O1702   1.259       .  A
C1701      C3303   1.487       .  S
O1702     Cr1707   1.958       .  S
O1703     Cr1707   2.026       .  S
O1703      C1704   1.270       .  A
C1704      C3240   1.487       .  S
Cr1705     O1708   1.747       .  S
Cr1706     O1708   1.767       .  S
Cr1707     O1708   1.764   1_545  S
O1709     Cr1727   1.968       .  S
O1709      C1717   1.258       .  A
O1710     Cr1727   1.990       .  S
O1710      C1711   1.262       .  A
C1711      O1712   1.259       .  A
C1711      C3190   1.498       .  S
O1712     Cr1728   1.981       .  S
O1713     Cr1728   2.107       .  S
O1713      C1714   1.283       .  A
C1714      O1715   1.221       .  A
C1714      C3293   1.494       .  S
O1715     Cr1729   1.926       .  S
O1716     Cr1729   2.022       .  S
O1716      C1717   1.272       .  A
C1717      C3223   1.483       .  S
O1718     Cr1727   2.021       .  S
O1718      C1726   1.270       .  A
O1719     Cr1727   1.929       .  S
O1719      C1720   1.259       .  A
C1720      O1721   1.285       .  A
C1720      C3210   1.479       .  S
O1721     Cr1728   2.045       .  S
O1722     Cr1728   1.937       .  S
O1722      C1723   1.244       .  A
C1723      O1724   1.284       .  A
C1723      C3263   1.522       .  S
O1724     Cr1729   2.120       .  S
O1725     Cr1729   1.979       .  S
O1725      C1726   1.269       .  A
C1726      C3203   1.486       .  S
Cr1727     O1730   1.758       .  S
Cr1728     O1730   1.766       .  S
Cr1729     O1730   1.736       .  S
O1731     Cr1749   1.990       .  S
O1731      C1739   1.253       .  A
O1732     Cr1749   2.013       .  S
O1732      C1733   1.264       .  A
C1733      O1734   1.267       .  A
C1733      C3170   1.497       .  S
O1734     Cr1750   1.996       .  S
O1735     Cr1750   2.072       .  S
O1735      C1736   1.274       .  A
C1736      O1737   1.238       .  A
C1736      C3253   1.511       .  S
O1737     Cr1751   1.953       .  S
O1738     Cr1751   1.982       .  S
O1738      C1739   1.257       .  A
C1739      C3213   1.483       .  S
O1740     Cr1749   2.035       .  S
O1740      C1748   1.275       .  A
O1741     Cr1749   1.948       .  S
O1741      C1742   1.256       .  A
C1742      O1743   1.278       .  A
C1742      C3220   1.499       .  S
O1743     Cr1750   2.028       .  S
O1744     Cr1750   1.954       .  S
O1744      C1745   1.256       .  A
C1745      O1746   1.267       .  A
C1745      C3320   1.480       .  S
O1746     Cr1751   2.027       .  S
O1747     Cr1751   1.944       .  S
O1747      C1748   1.254       .  A
C1748      C3180   1.507       .  S
Cr1749     O1752   1.763       .  S
Cr1750     O1752   1.762       .  S
Cr1751     O1752   1.755       .  S
O1753     Cr1771   2.019       .  S
O1753      C1761   1.267       .  A
O1754     Cr1771   1.940       .  S
O1754      C1755   1.234       .  A
C1755      O1756   1.279       .  A
C1755      C3160   1.513       .  S
O1756     Cr1772   2.100       .  S
O1757     Cr1772   1.995       .  S
O1757      C1758   1.268       .  A
C1758      O1759   1.265       .  A
C1758      C3120   1.488       .  S
O1759     Cr1773   2.007       .  S
O1760     Cr1773   1.960       .  S
O1760      C1761   1.251       .  A
C1761      C3150   1.480       .  S
O1762     Cr1771   1.959       .  S
O1762      C1770   1.260       .  A
O1763     Cr1771   2.056       .  S
O1763      C1764   1.274       .  A
C1764      O1765   1.246       .  A
C1764      C3133   1.508       .  S
O1765     Cr1772   1.952       .  S
O1766     Cr1772   2.038       .  S
O1766      C1767   1.280       .  A
C1767      O1768   1.259       .  A
C1767      C3140   1.480       .  S
O1768     Cr1773   1.951       .  S
O1769     Cr1773   2.023       .  S
O1769      C1770   1.269       .  A
C1770      C3280   1.478       .  S
Cr1771     O1774   1.745       .  S
Cr1772     O1774   1.763       .  S
Cr1773     O1774   1.760       .  S
O1775     Cr1793   2.018       .  S
O1775      C1783   1.270       .  A
O1776     Cr1793   1.945       .  S
O1776      C1777   1.237       .  A
C1777      O1778   1.279       .  A
C1777      C3110   1.505       .  S
O1778     Cr1794   2.091       .  S
O1779     Cr1794   1.987       .  S
O1779      C1780   1.261       .  A
C1780      O1781   1.266       .  A
C1780      C3093   1.512       .  S
O1781     Cr1795   2.007       .  S
O1782     Cr1795   1.963       .  S
O1782      C1783   1.253       .  A
C1783      C3143   1.504       .  S
O1784     Cr1793   1.967       .  S
O1784      C1792   1.260       .  A
O1785     Cr1793   2.065       .  S
O1785      C1786   1.278       .  A
C1786      O1787   1.250       .  A
C1786      C3100   1.492       .  S
O1787     Cr1794   1.950       .  S
O1788     Cr1794   2.046       .  S
O1788      C1789   1.280       .  A
C1789      O1790   1.251       .  A
O1790     Cr1795   1.934       .  S
O1791     Cr1795   2.025       .  S
O1791      C1792   1.271       .  A
C1792      C3243   1.492       .  S
Cr1793     O1796   1.740       .  S
Cr1794     O1796   1.764       .  S
Cr1795     O1796   1.756       .  S
O1797      C1805   1.250       .  A
O1798     Cr1815   2.010   1_545  S
O1798      C1799   1.265       .  A
C1799      O1800   1.270       .  A
C1799      C3060   1.496       .  S
O1800     Cr1816   2.008       .  S
O1801     Cr1816   2.107       .  S
C1802      O1803   1.232   1_554  A
C1802      C3103   1.507   1_554  S
O1804      C1805   1.269       .  A
C1805      C3070   1.481       .  S
O1806     Cr1815   2.023       .  S
O1806      C1814   1.270       .  A
O1807     Cr1815   1.939       .  S
O1807      C1808   1.254   1_565  A
C1808      O1809   1.281       .  A
C1808      C3083   1.504   1_545  S
O1809     Cr1816   2.038       .  S
O1810     Cr1816   1.960       .  S
O1810      C1811   1.251       .  A
C1811      O1812   1.275       .  A
C1811      C3163   1.499       .  S
O1812     Cr1817   2.056       .  S
O1813     Cr1817   1.950   1_565  S
O1813      C1814   1.256       .  A
C1814      C3200   1.490       .  S
Cr1815     O1818   1.767   1_565  S
Cr1816     O1818   1.766       .  S
Cr1817     O1818   1.751       .  S
O1819     Cr1837   1.966       .  S
O1819      C1827   1.258       .  A
O1820     Cr1837   2.002   1_545  S
O1820      C1821   1.263       .  A
C1821      O1822   1.259       .  A
C1821      C3050   1.501       .  S
O1822     Cr1838   1.975       .  S
O1823     Cr1838   2.082       .  S
O1823      C1824   1.277       .  A
C1824      O1825   1.237       .  A
C1824      C3130   1.504       .  S
O1825     Cr1839   1.930       .  S
O1826     Cr1839   2.025   1_565  S
O1826      C1827   1.274       .  A
C1827      C3080   1.481       .  S
O1828     Cr1837   2.021       .  S
O1828      C1836   1.266       .  A
O1829     Cr1837   1.954       .  S
O1829      C1830   1.259   1_565  A
C1830      O1831   1.278       .  A
C1830      C3073   1.497       .  S
O1831     Cr1838   2.038       .  S
O1832     Cr1838   1.949       .  S
O1832      C1833   1.250       .  A
C1833      O1834   1.278       .  A
C1833      C3113   1.491       .  S
O1834     Cr1839   2.060       .  S
O1835     Cr1839   1.977   1_565  S
O1835      C1836   1.261       .  A
C1836      C3183   1.500       .  S
Cr1837     O1840   1.753   1_565  S
Cr1838     O1840   1.761       .  S
Cr1839     O1840   1.737       .  S
O1841      C1849   1.276       .  A
O1842      C1843   1.233       .  A
C1843      C3040   1.496       .  S
O1844     Cr1860   2.073       .  S
O1845     Cr1860   2.002       .  S
O1845      C1846   1.266       .  A
C1846      O1847   1.261   1_565  A
C1846      C3233   1.513       .  S
O1847     Cr1861   2.007       .  S
O1848      C1849   1.258       .  A
C1849      C3020   1.492       .  S
O1850     Cr1859   1.971       .  S
O1850      C1858   1.261       .  A
O1851     Cr1859   2.084   1_565  S
O1851      C1852   1.282       .  A
C1852      O1853   1.258       .  A
C1852      C3013   1.516       .  S
O1853     Cr1860   1.960       .  S
O1854     Cr1860   2.035       .  S
O1854      C1855   1.277   1_565  A
C1855      O1856   1.258       .  A
C1855      C3030   1.499       .  S
O1856     Cr1861   1.957       .  S
O1857     Cr1861   2.017       .  S
O1857      C1858   1.269       .  A
C1858      C3003   1.489       .  S
Cr1859     O1862   1.746   1_545  S
Cr1860     O1862   1.760       .  S
Cr1861     O1862   1.761   1_545  S
O1863     Cr1881   2.038   1_545  S
O1863      C1871   1.278       .  A
O1864     Cr1881   1.889       .  S
O1864      C1865   1.232       .  A
C1865      O1866   1.273       .  A
C1865      C2990   1.487       .  S
O1866     Cr1882   2.082       .  S
O1867     Cr1882   2.002       .  S
O1867      C1868   1.266       .  A
C1868      O1869   1.264   1_565  A
C1868      C3273   1.481       .  S
O1869     Cr1883   2.008       .  S
O1870     Cr1883   1.977       .  S
O1870      C1871   1.262       .  A
C1871      C3033   1.498       .  S
O1872     Cr1881   1.956   1_545  S
O1872      C1880   1.253       .  A
O1873     Cr1881   2.038       .  S
O1873      C1874   1.272       .  A
C1874      O1875   1.252       .  A
C1874      C2980   1.489       .  S
O1875     Cr1882   1.959       .  S
O1876     Cr1882   2.032       .  S
O1876      C1877   1.277   1_565  A
C1877      O1878   1.267       .  A
C1877      C3023   1.508       .  S
O1878     Cr1883   1.979       .  S
O1879     Cr1883   2.032       .  S
O1879      C1880   1.267       .  A
C1880      C2973   1.484       .  S
Cr1881     O1884   1.742       .  S
Cr1882     O1884   1.772       .  S
Cr1883     O1884   1.765   1_545  S
O1885     Cr1903   1.976       .  S
O1885      C1893   1.259       .  A
O1886     Cr1903   2.015   1_455  S
O1886      C1887   1.268       .  A
C1887      O1888   1.259       .  A
C1887      C2930   1.471       .  S
O1888     Cr1904   1.970       .  S
O1889     Cr1904   2.100       .  S
O1889      C1890   1.282       .  A
C1890      O1891   1.244       .  A
C1890      C3010   1.512       .  S
O1891     Cr1905   1.941       .  S
O1892     Cr1905   2.037   1_655  S
O1892      C1893   1.275       .  A
C1893      C2960   1.519       .  S
O1894     Cr1903   2.048       .  S
O1894      C1902   1.272       .  A
O1895     Cr1903   1.974       .  S
O1895      C1896   1.265   1_655  A
C1896      O1897   1.285       .  A
C1896      C2950   1.504       .  S
O1897     Cr1904   2.062       .  S
O1898     Cr1904   1.917       .  S
O1898      C1899   1.238       .  A
C1899      O1900   1.277       .  A
C1899      C2993   1.477       .  S
O1900     Cr1905   2.061       .  S
O1901     Cr1905   1.960   1_655  S
O1901      C1902   1.254       .  A
C1902      C2943   1.503       .  S
Cr1903     O1906   1.763   1_655  S
Cr1904     O1906   1.757       .  S
Cr1905     O1906   1.743       .  S
O1907     Cr1925   1.996       .  S
O1907      C1915   1.264       .  A
O1908     Cr1925   1.994   1_455  S
O1908      C1909   1.262       .  A
C1909      O1910   1.262       .  A
C1909      C2910   1.510       .  S
O1910     Cr1926   1.995       .  S
O1911     Cr1926   2.080       .  S
O1911      C1912   1.275       .  A
C1912      O1913   1.238       .  A
C1912      C2983   1.510       .  S
O1913     Cr1927   1.936       .  S
O1914     Cr1927   2.035   1_655  S
O1914      C1915   1.274       .  A
C1915      C2953   1.513       .  S
O1916     Cr1925   2.027       .  S
O1916      C1924   1.267       .  A
O1917     Cr1925   1.970       .  S
O1917      C1918   1.261   1_655  A
C1918      O1919   1.282       .  A
O1919     Cr1926   2.047       .  S
O1920     Cr1926   1.952       .  S
O1920      C1921   1.251       .  A
C1921      O1922   1.268       .  A
C1921      C3043   1.485       .  S
O1922     Cr1927   2.042       .  S
O1923     Cr1927   1.956   1_655  S
O1923      C1924   1.255       .  A
C1924      C2923   1.479       .  S
Cr1925     O1928   1.766   1_655  S
Cr1926     O1928   1.778       .  S
Cr1927     O1928   1.740       .  S
O1929     Cr1947   2.010   1_455  S
O1929      C1937   1.269       .  A
O1930     Cr1947   1.948       .  S
O1930      C1931   1.238       .  A
C1931      O1932   1.275       .  A
C1931      C2870   1.509       .  S
O1932     Cr1948   2.084       .  S
O1933     Cr1948   1.989       .  S
O1933      C1934   1.264       .  A
C1934      O1935   1.263   1_655  A
C1934      C2863   1.508       .  S
O1935     Cr1949   2.000       .  S
O1936     Cr1949   1.965       .  S
O1936      C1937   1.257       .  A
C1937      C2890   1.473       .  S
O1938     Cr1947   1.970   1_455  S
O1938      C1946   1.261       .  A
O1939     Cr1947   2.052       .  S
O1939      C1940   1.276       .  A
C1940      O1941   1.245       .  A
C1940      C2900   1.478       .  S
O1941     Cr1948   1.939       .  S
O1942     Cr1948   2.023       .  S
O1942      C1943   1.278   1_655  A
C1943      O1944   1.258       .  A
C1943      C2880   1.474       .  S
O1944     Cr1949   1.947       .  S
O1945     Cr1949   2.030       .  S
O1945      C1946   1.270       .  A
C1946      C3000   1.487       .  S
Cr1947     O1950   1.742       .  S
Cr1948     O1950   1.767       .  S
Cr1949     O1950   1.759   1_455  S
O1951     Cr1969   2.012   1_455  S
O1951      C1959   1.271       .  A
O1952     Cr1969   1.929       .  S
O1952      C1953   1.241       .  A
C1953      O1954   1.278       .  A
C1953      C2840   1.504       .  S
O1954     Cr1970   2.078       .  S
O1955     Cr1970   1.989       .  S
O1955      C1956   1.262       .  A
C1956      O1957   1.259   1_655  A
C1956      C2830   1.497       .  S
O1957     Cr1971   2.007       .  S
O1958     Cr1971   1.967       .  S
O1958      C1959   1.257       .  A
C1959      C2883   1.486       .  S
O1960     Cr1969   1.962   1_455  S
O1960      C1968   1.259       .  A
O1961     Cr1969   2.056       .  S
O1961      C1962   1.276       .  A
C1962      O1963   1.252       .  A
C1962      C2853   1.513       .  S
O1963     Cr1970   1.952       .  S
O1964     Cr1970   2.047       .  S
O1964      C1965   1.283   1_655  A
C1965      O1966   1.251       .  A
C1965      C2893   1.498       .  S
O1966     Cr1971   1.923       .  S
O1967     Cr1971   2.013       .  S
O1967      C1968   1.268       .  A
C1968      C2970   1.497       .  S
Cr1969     O1972   1.749       .  S
Cr1970     O1972   1.759       .  S
Cr1971     O1972   1.765   1_455  S
O1973     Cr1991   1.986       .  S
O1973      C1981   1.262       .  A
O1974     Cr1991   2.007   1_545  S
O1974      C1975   1.263       .  A
C1975      O1976   1.260       .  A
C1975      C3053   1.489       .  S
O1976     Cr1992   1.983       .  S
O1977     Cr1992   2.076       .  S
O1977      C1978   1.278       .  A
C1978      O1979   1.252       .  A
C1978      C2850   1.506       .  S
O1979     Cr1993   1.954       .  S
O1980     Cr1993   2.038   1_565  S
O1980      C1981   1.275       .  A
C1981      C2813   1.510       .  S
O1982     Cr1991   2.031       .  S
O1982      C1990   1.267       .  A
O1983     Cr1991   1.971       .  S
O1983      C1984   1.263   1_565  A
C1984      O1985   1.282       .  A
C1984      C2823   1.501   1_545  S
O1985     Cr1992   2.048       .  S
O1986     Cr1992   1.964       .  S
O1986      C1987   1.253       .  A
C1987      O1988   1.278       .  A
C1987      C2873   1.502       .  S
O1988     Cr1993   2.051       .  S
O1989     Cr1993   1.977   1_565  S
O1989      C1990   1.260       .  A
C1990      C2940   1.506       .  S
Cr1991     O1994   1.772   1_565  S
Cr1992     O1994   1.761       .  S
Cr1993     O1994   1.742       .  S
O1995      C2003   1.263       .  A
O1996     Cr2013   2.009   1_545  S
O1996      C1997   1.267       .  A
C1997      O1998   1.257       .  A
C1997      C3063   1.494       .  S
O1998     Cr2014   1.981       .  S
O1999     Cr2014   2.089       .  S
C2000      O2001   1.228       .  A
C2000      C2903   1.506       .  S
O2002      C2003   1.270       .  A
C2003      C2820   1.504       .  S
O2004     Cr2013   2.024       .  S
O2004      C2012   1.272       .  A
O2005     Cr2013   1.976       .  S
O2005      C2006   1.263   1_565  A
C2006      O2007   1.289       .  A
C2006      C2810   1.511       .  S
O2007     Cr2014   2.068       .  S
O2008     Cr2014   1.923       .  S
O2008      C2009   1.245       .  A
C2009      O2010   1.274       .  A
C2009      C2843   1.508       .  S
O2010     Cr2015   2.073       .  S
O2011     Cr2015   1.970   1_565  S
O2011      C2012   1.261       .  A
C2012      C2920   1.495       .  S
Cr2013     O2016   1.762   1_565  S
Cr2014     O2016   1.777       .  S
Cr2015     O2016   1.741       .  S
O2017     Cr2035   2.029       .  S
O2017      C2025   1.271       .  A
O2018     Cr2035   1.947       .  S
O2018      C2019   1.235       .  A
C2019      O2020   1.276       .  A
C2019      C2783   1.508       .  S
O2020     Cr2036   2.088       .  S
O2021     Cr2036   1.968       .  S
O2021      C2022   1.259       .  A
C2022      O2023   1.273       .  A
C2022      C3123   1.492       .  S
O2023     Cr2037   2.011       .  S
O2024     Cr2037   1.961       .  S
O2024      C2025   1.253       .  A
C2025      C2803   1.494       .  S
O2026     Cr2035   1.956       .  S
O2026      C2034   1.255       .  A
O2027     Cr2035   2.068       .  S
O2027      C2028   1.280       .  A
C2028      O2029   1.248       .  A
C2028      C2770   1.483       .  S
O2029     Cr2036   1.941       .  S
O2030     Cr2036   2.043       .  S
O2030      C2031   1.276       .  A
C2031      O2032   1.256       .  A
C2031      C2790   1.498       .  S
O2032     Cr2037   1.949       .  S
O2033     Cr2037   2.033       .  S
O2033      C2034   1.273       .  A
C2034      C2763   1.474       .  S
Cr2035     O2038   1.745       .  S
Cr2036     O2038   1.768       .  S
Cr2037     O2038   1.751       .  S
O2039     Cr2057   2.029       .  S
O2039      C2047   1.273       .  A
O2040     Cr2057   1.921       .  S
O2040      C2041   1.234       .  A
C2041      O2042   1.275       .  A
C2041      C2750   1.511       .  S
O2042     Cr2058   2.089       .  S
O2043     Cr2058   2.003       .  S
O2043      C2044   1.267       .  A
C2044      O2045   1.262       .  A
C2044      C3090   1.499       .  S
O2045     Cr2059   2.007       .  S
O2046     Cr2059   1.963       .  S
O2046      C2047   1.250       .  A
C2047      C2793   1.484       .  S
O2048     Cr2057   1.962       .  S
O2048      C2056   1.258       .  A
O2049     Cr2057   2.065       .  S
O2049      C2050   1.278       .  A
C2050      O2051   1.252       .  A
C2050      C2740   1.516       .  S
O2051     Cr2058   1.951       .  S
O2052     Cr2058   2.045       .  S
O2052      C2053   1.282       .  A
C2053      O2054   1.257       .  A
C2053      C2800   1.496       .  S
O2054     Cr2059   1.945       .  S
O2055     Cr2059   2.024       .  S
O2055      C2056   1.271       .  A
C2056      C2730   1.492       .  S
Cr2057     O2060   1.754       .  S
Cr2058     O2060   1.763       .  S
Cr2059     O2060   1.762       .  S
O2061     Cr2079   1.970       .  S
O2061      C2069   1.256       .  A
O2062     Cr2079   2.011       .  S
O2062      C2063   1.267       .  A
C2063      O2064   1.257       .  A
C2063      C2690   1.467       .  S
O2064     Cr2080   1.967       .  S
O2065     Cr2080   2.082       .  S
O2065      C2066   1.278       .  A
C2066      O2067   1.246       .  A
C2066      C2743   1.510       .  S
O2067     Cr2081   1.942       .  S
O2068     Cr2081   2.033       .  S
O2068      C2069   1.273       .  A
C2069      C2710   1.514       .  S
O2070     Cr2079   2.026       .  S
O2070      C2078   1.270       .  A
O2071     Cr2079   1.959       .  S
O2071      C2072   1.258       .  A
C2072      O2073   1.281       .  A
C2072      C2720   1.497       .  S
O2073     Cr2080   2.050       .  S
O2074     Cr2080   1.956       .  S
O2074      C2075   1.251       .  A
C2075      O2076   1.277       .  A
C2075      C2780   1.497       .  S
O2076     Cr2081   2.056       .  S
O2077     Cr2081   1.966       .  S
O2077      C2078   1.258       .  A
C2078      C2700   1.473       .  S
Cr2079     O2082   1.766       .  S
Cr2080     O2082   1.760       .  S
Cr2081     O2082   1.747       .  S
O2083      C2091   1.266       .  A
O2084     Cr2101   2.018       .  S
O2084      C2085   1.267       .  A
C2085      O2086   1.262       .  A
C2085      C2670   1.486       .  S
O2086     Cr2102   1.992       .  S
O2087     Cr2102   2.086       .  S
C2088      O2089   1.232       .  A
C2088      C2773   1.500       .  S
O2090      C2091   1.270       .  A
C2091      C2723   1.501       .  S
O2092     Cr2101   2.021       .  S
O2092      C2100   1.269       .  A
O2093     Cr2101   1.965       .  S
O2093      C2094   1.259       .  A
C2094      O2095   1.281       .  A
C2094      C2713   1.494       .  S
O2095     Cr2102   2.041       .  S
O2096     Cr2102   1.953       .  S
O2096      C2097   1.248       .  A
C2097      O2098   1.275       .  A
C2097      C2753   1.511       .  S
O2098     Cr2103   2.066       .  S
O2099     Cr2103   1.970       .  S
O2099      C2100   1.263       .  A
C2100      C2680   1.478       .  S
Cr2101     O2104   1.766       .  S
Cr2102     O2104   1.782       .  S
Cr2103     O2104   1.743       .  S
O2105      C2113   1.272       .  A
O2106      C2107   1.234   1_556  A
C2107      C2660   1.507   1_554  S
O2108     Cr2124   2.094       .  S
O2109     Cr2124   1.998       .  S
O2109      C2110   1.266       .  A
C2110      O2111   1.270       .  A
C2110      C2623   1.487       .  S
O2111     Cr2125   2.019       .  S
O2112      C2113   1.262       .  A
C2113      C2643   1.505       .  S
O2114     Cr2123   1.946       .  S
O2114      C2122   1.253       .  A
O2115     Cr2123   2.060       .  S
O2115      C2116   1.273       .  A
C2116      O2117   1.251       .  A
C2116      C2630   1.511       .  S
O2117     Cr2124   1.969       .  S
O2118     Cr2124   2.038       .  S
O2118      C2119   1.279       .  A
C2119      O2120   1.258       .  A
C2119      C2653   1.517       .  S
O2120     Cr2125   1.970       .  S
O2121     Cr2125   2.025       .  S
O2121      C2122   1.270       .  A
C2122      C2760   1.469       .  S
Cr2123     O2126   1.740       .  S
Cr2124     O2126   1.770       .  S
Cr2125     O2126   1.764       .  S
O2127     Cr2145   2.040       .  S
O2127      C2135   1.274       .  A
O2128     Cr2145   1.930       .  S
O2128      C2129   1.236       .  A
C2129      O2130   1.275       .  A
C2129      C2610   1.492       .  S
O2130     Cr2146   2.078       .  S
O2131     Cr2146   1.976       .  S
O2131      C2132   1.259       .  A
C2132      O2133   1.273       .  A
C2132      C2590   1.489       .  S
O2133     Cr2147   2.016       .  S
O2134     Cr2147   1.980       .  S
O2134      C2135   1.260       .  A
C2135      C2650   1.501       .  S
O2136     Cr2145   1.952       .  S
O2136      C2144   1.255       .  A
O2137     Cr2145   2.068       .  S
O2137      C2138   1.275       .  A
C2138      O2139   1.243       .  A
C2138      C2603   1.484       .  S
O2139     Cr2146   1.936       .  S
O2140     Cr2146   2.044       .  S
O2140      C2141   1.279       .  A
C2141      O2142   1.262       .  A
C2141      C2640   1.497       .  S
O2142     Cr2147   1.969       .  S
O2143     Cr2147   2.047       .  S
O2143      C2144   1.275       .  A
C2144      C2733   1.486       .  S
Cr2145     O2148   1.752       .  S
Cr2146     O2148   1.770       .  S
Cr2147     O2148   1.762       .  S
O2149     Cr2167   1.961       .  S
O2149      C2157   1.252       .  A
O2150     Cr2167   2.020       .  S
O2150      C2151   1.269       .  A
C2151      O2152   1.264       .  A
C2151      C3193   1.484       .  S
O2152     Cr2168   1.973       .  S
O2153     Cr2168   2.096       .  S
O2153      C2154   1.276       .  A
C2154      O2155   1.233       .  A
C2154      C2633   1.515       .  S
O2155     Cr2169   1.928       .  S
O2156     Cr2169   2.025       .  S
O2156      C2157   1.271       .  A
C2157      C2580   1.486       .  S
O2158     Cr2167   2.026       .  S
O2158      C2166   1.270       .  A
O2159     Cr2167   1.961       .  S
O2159      C2160   1.259       .  A
C2160      O2161   1.277       .  A
C2160      C2573   1.503       .  S
O2161     Cr2168   2.038       .  S
O2162     Cr2168   1.943       .  S
O2162      C2163   1.249       .  A
C2163      O2164   1.277       .  A
C2163      C2613   1.477       .  S
O2164     Cr2169   2.050       .  S
O2165     Cr2169   1.964       .  S
O2165      C2166   1.257       .  A
C2166      C2703   1.474       .  S
Cr2167     O2170   1.758       .  S
Cr2168     O2170   1.766       .  S
Cr2169     O2170   1.750       .  S
O2171     Cr2189   1.958       .  S
O2171      C2179   1.254       .  A
O2172     Cr2189   1.992       .  S
O2172      C2173   1.266       .  A
C2173      O2174   1.267       .  A
C2173      C3173   1.506       .  S
O2174     Cr2190   2.001       .  S
O2175     Cr2190   2.100       .  S
O2175      C2176   1.282       .  A
C2176      O2177   1.234       .  A
C2176      C2600   1.498       .  S
O2177     Cr2191   1.913       .  S
O2178     Cr2191   2.045       .  S
O2178      C2179   1.280       .  A
C2179      C2570   1.490       .  S
O2180     Cr2189   2.025       .  S
O2180      C2188   1.269       .  A
O2181     Cr2189   1.945       .  S
O2181      C2182   1.254       .  A
C2182      O2183   1.280       .  A
O2183     Cr2190   2.038       .  S
O2184     Cr2190   1.947       .  S
O2184      C2185   1.245       .  A
C2185      O2186   1.276       .  A
C2185      C2663   1.490       .  S
O2186     Cr2191   2.068       .  S
O2187     Cr2191   1.953       .  S
O2187      C2188   1.253       .  A
C2188      C2683   1.483       .  S
Cr2189     O2192   1.759       .  S
Cr2190     O2192   1.767       .  S
Cr2191     O2192   1.745       .  S
O2193     Cr2211   2.022   1_455  S
O2193      C2201   1.271       .  A
O2194     Cr2211   1.929       .  S
O2194      C2195   1.237       .  A
C2195      O2196   1.279       .  A
C2195      C2563   1.508       .  S
O2196     Cr2212   2.088       .  S
O2197     Cr2212   1.986       .  S
O2197      C2198   1.262       .  A
C2198      O2199   1.261   1_655  A
C2198      C2860   1.494       .  S
O2199     Cr2213   2.009       .  S
O2200     Cr2213   1.961       .  S
O2200      C2201   1.253       .  A
C2201      C2550   1.479       .  S
O2202     Cr2211   1.974   1_455  S
O2202      C2210   1.262       .  A
O2203     Cr2211   2.052       .  S
O2203      C2204   1.276       .  A
C2204      O2205   1.251       .  A
C2204      C2530   1.486       .  S
O2205     Cr2212   1.946       .  S
O2206     Cr2212   2.049       .  S
O2206      C2207   1.284   1_655  A
C2207      O2208   1.253       .  A
C2207      C2540   1.502       .  S
O2208     Cr2213   1.931       .  S
O2209     Cr2213   2.020       .  S
O2209      C2210   1.270       .  A
C2210      C2520   1.490       .  S
Cr2211     O2214   1.752       .  S
Cr2212     O2214   1.764       .  S
Cr2213     O2214   1.762   1_455  S
O2215     Cr2233   2.024   1_455  S
O2215      C2223   1.273       .  A
O2216     Cr2233   1.946       .  S
O2216      C2217   1.247       .  A
C2217      O2218   1.276       .  A
C2217      C2510   1.498       .  S
O2218     Cr2234   2.077       .  S
O2219     Cr2234   1.990       .  S
O2219      C2220   1.265       .  A
C2220      O2221   1.263   1_655  A
C2220      C2833   1.510       .  S
O2221     Cr2235   2.001       .  S
O2222     Cr2235   1.958       .  S
O2222      C2223   1.256       .  A
C2223      C2543   1.477       .  S
O2224     Cr2233   1.972   1_455  S
O2224      C2232   1.258       .  A
O2225     Cr2233   2.042       .  S
O2225      C2226   1.276       .  A
C2226      O2227   1.250       .  A
C2226      C2500   1.494       .  S
O2227     Cr2234   1.958       .  S
O2228     Cr2234   2.024       .  S
O2228      C2229   1.274   1_655  A
C2229      O2230   1.260       .  A
O2230     Cr2235   1.963       .  S
O2231     Cr2235   2.027       .  S
O2231      C2232   1.267       .  A
C2232      C2490   1.500       .  S
Cr2233     O2236   1.744       .  S
Cr2234     O2236   1.761       .  S
Cr2235     O2236   1.759   1_455  S
O2237      C2245   1.258       .  A
O2238     Cr2255   2.022       .  S
O2238      C2239   1.270       .  A
C2239      O2240   1.258       .  A
C2239      C2673   1.484       .  S
O2240     Cr2256   1.978       .  S
O2241     Cr2256   2.067       .  S
C2242      O2243   1.243   1_554  A
C2242      C2503   1.507   1_554  S
O2244      C2245   1.267       .  A
C2245      C2470   1.506       .  S
O2246     Cr2255   2.036       .  S
O2246      C2254   1.274       .  A
O2247     Cr2255   1.956       .  S
O2247      C2248   1.256       .  A
C2248      O2249   1.279       .  A
C2248      C2480   1.489       .  S
O2249     Cr2256   2.045       .  S
O2250     Cr2256   1.958       .  S
O2250      C2251   1.250       .  A
C2251      O2252   1.273       .  A
C2251      C2560   1.508       .  S
O2252     Cr2257   2.055       .  S
O2253     Cr2257   1.965       .  S
O2253      C2254   1.262       .  A
C2254      C2460   1.485       .  S
Cr2255     O2258   1.765       .  S
Cr2256     O2258   1.771       .  S
Cr2257     O2258   1.747       .  S
O2259     Cr2277   1.972       .  S
O2259      C2267   1.257       .  A
O2260     Cr2277   2.021       .  S
O2260      C2261   1.269       .  A
C2261      O2262   1.255       .  A
C2261      C2693   1.471       .  S
O2262     Cr2278   1.965       .  S
O2263     Cr2278   2.108       .  S
O2263      C2264   1.284       .  A
C2264      O2265   1.231       .  A
C2264      C2533   1.499       .  S
O2265     Cr2279   1.940       .  S
O2266     Cr2279   2.035       .  S
O2266      C2267   1.272       .  A
C2267      C2483   1.508       .  S
O2268     Cr2277   2.040       .  S
O2268      C2276   1.275       .  A
O2269     Cr2277   1.942       .  S
O2269      C2270   1.256       .  A
C2270      O2271   1.286       .  A
C2270      C2473   1.492       .  S
O2271     Cr2278   2.065       .  S
O2272     Cr2278   1.942       .  S
O2272      C2273   1.246       .  A
C2273      O2274   1.283       .  A
C2273      C2513   1.520       .  S
O2274     Cr2279   2.109       .  S
O2275     Cr2279   1.953       .  S
O2275      C2276   1.262       .  A
C2276      C2450   1.487       .  S
Cr2277     O2280   1.760       .  S
Cr2278     O2280   1.759       .  S
Cr2279     O2280   1.735       .  S
O2281     Cr2299   2.023       .  S
O2281      C2289   1.270       .  A
O2282     Cr2299   1.906       .  S
O2282      C2283   1.230       .  A
C2283      O2284   1.271       .  A
C2283      C2440   1.496       .  S
O2284     Cr2300   2.080       .  S
O2285     Cr2300   1.983       .  S
O2285      C2286   1.260       .  A
C2286      O2287   1.271       .  A
C2286      C2593   1.485       .  S
O2287     Cr2301   2.023       .  S
O2288     Cr2301   1.977       .  S
O2288      C2289   1.257       .  A
C2289      C2420   1.493       .  S
O2290     Cr2299   1.953       .  S
O2290      C2298   1.259       .  A
O2291     Cr2299   2.059       .  S
O2291      C2292   1.274       .  A
C2292      O2293   1.250       .  A
C2292      C2410   1.510       .  S
O2293     Cr2300   1.947       .  S
O2294     Cr2300   2.036       .  S
O2294      C2295   1.278       .  A
C2295      O2296   1.258       .  A
C2295      C2433   1.481       .  S
O2296     Cr2301   1.952       .  S
O2297     Cr2301   2.038       .  S
O2297      C2298   1.274       .  A
C2298      C2523   1.482       .  S
Cr2299     O2302   1.743       .  S
Cr2300     O2302   1.778       .  S
Cr2301     O2302   1.767       .  S
O2303      C2311   1.268       .  A
O2304      C2305   1.239       .  A
C2305      C2403   1.513       .  S
O2306     Cr2322   2.081       .  S
O2307     Cr2322   1.971       .  S
O2307      C2308   1.257       .  A
C2308      O2309   1.271       .  A
C2308      C2620   1.486       .  S
O2309     Cr2323   2.027       .  S
O2310      C2311   1.252       .  A
C2311      C2430   1.499       .  S
O2312     Cr2321   1.959       .  S
O2312      C2320   1.260       .  A
O2313     Cr2321   2.080       .  S
O2313      C2314   1.278       .  A
C2314      O2315   1.246       .  A
C2314      C2390   1.520       .  S
O2315     Cr2322   1.938       .  S
O2316     Cr2322   2.052       .  S
O2316      C2317   1.284       .  A
C2317      O2318   1.250       .  A
C2317      C2423   1.477       .  S
O2318     Cr2323   1.939       .  S
O2319     Cr2323   2.031       .  S
O2319      C2320   1.275       .  A
C2320      C2493   1.511       .  S
Cr2321     O2324   1.747       .  S
Cr2322     O2324   1.762       .  S
Cr2323     O2324   1.767       .  S
O2325     Cr2343   1.969       .  S
O2325      C2333   1.255       .  A
O2326     Cr2343   2.015   1_455  S
O2326      C2327   1.267       .  A
C2327      O2328   1.257       .  A
C2327      C2933   1.472       .  S
O2328     Cr2344   1.973       .  S
O2329     Cr2344   2.066       .  S
O2329      C2330   1.276       .  A
C2330      O2331   1.251       .  A
C2330      C2413   1.499       .  S
O2331     Cr2345   1.948       .  S
O2332     Cr2345   2.021   1_655  S
O2332      C2333   1.268       .  A
C2333      C2383   1.502       .  S
O2334     Cr2343   2.030       .  S
O2334      C2342   1.274       .  A
O2335     Cr2343   1.939       .  S
O2335      C2336   1.251   1_655  A
C2336      O2337   1.277       .  A
C2336      C2370   1.502   1_455  S
O2337     Cr2344   2.034       .  S
O2338     Cr2344   1.960       .  S
O2338      C2339   1.250       .  A
C2339      O2340   1.275       .  A
C2339      C2400   1.496       .  S
O2340     Cr2345   2.045       .  S
O2341     Cr2345   1.960   1_655  S
O2341      C2342   1.260       .  A
C2342      C2463   1.489       .  S
Cr2343     O2346   1.762   1_655  S
Cr2344     O2346   1.762       .  S
Cr2345     O2346   1.749       .  S
O2347     Cr2365   1.971       .  S
O2347      C2355   1.255       .  A
O2348     Cr2365   2.016   1_455  S
O2348      C2349   1.265       .  A
C2349      O2350   1.263       .  A
C2349      C2913   1.494       .  S
O2350     Cr2366   1.982       .  S
O2351     Cr2366   2.093       .  S
O2351      C2352   1.278       .  A
C2352      O2353   1.236       .  A
C2352      C2393   1.516       .  S
O2353     Cr2367   1.929       .  S
O2354     Cr2367   2.013   1_655  S
O2354      C2355   1.269       .  A
C2355      C2373   1.480       .  S
O2356     Cr2365   2.023       .  S
O2356      C2364   1.271       .  A
O2357     Cr2365   1.951       .  S
O2357      C2358   1.259   1_655  A
C2358      O2359   1.282       .  A
C2358      C2380   1.481       .  S
O2359     Cr2366   2.052       .  S
O2360     Cr2366   1.934       .  S
O2360      C2361   1.248       .  A
C2361      O2362   1.276       .  A
C2361      C2443   1.490       .  S
O2362     Cr2367   2.055       .  S
O2363     Cr2367   1.963   1_655  S
O2363      C2364   1.259       .  A
C2364      C2453   1.503       .  S
Cr2365     O2368   1.760   1_655  S
Cr2366     O2368   1.765       .  S
Cr2367     O2368   1.753       .  S
C2369      C2374   1.407       .  A
C2369     Br2376   1.936       .  S
C2371      C2372   1.410       .  A
C2372      C2373   1.399       .  A
C2372     Br2377   1.934       .  S
C2373      C2374   1.414   1_655  A
C2374     Br2375   1.923       .  S
C2379      C2380   1.409       .  A
C2379      C2384   1.407   1_455  A
C2379     Br2386   1.920       .  S
C2380      C2381   1.404   1_455  A
C2381      C2382   1.414       .  A
C2381     Br2388   1.930       .  S
C2382      C2383   1.426       .  A
C2382     Br2387   1.935       .  S
C2383      C2384   1.418       .  A
C2384     Br2385   1.941       .  S
C2389      C2390   1.414       .  A
C2389      C2394   1.412       .  A
C2389     Br2396   1.935       .  S
C2390      C2391   1.439       .  A
C2391      C2392   1.422       .  A
C2391     Br2398   1.940       .  S
C2392      C2393   1.410       .  A
C2392     Br2397   1.933       .  S
C2393      C2394   1.426       .  A
C2394     Br2395   1.937       .  S
C2399      C2400   1.401       .  A
C2399      C2404   1.408       .  A
C2399     Br2406   1.944       .  S
C2400      C2401   1.426       .  A
C2401      C2402   1.418       .  A
C2401     Br2408   1.936       .  S
C2402      C2403   1.413       .  A
C2402     Br2407   1.933       .  S
C2403      C2404   1.436       .  A
C2404     Br2405   1.932       .  S
C2409      C2410   1.421       .  A
C2409      C2414   1.409       .  A
C2409     Br2416   1.928       .  S
C2410      C2411   1.429       .  A
C2411      C2412   1.415       .  A
C2411     Br2418   1.937       .  S
C2412      C2413   1.407       .  A
C2412     Br2417   1.924       .  S
C2413      C2414   1.408       .  A
C2414     Br2415   1.930       .  S
C2419      C2420   1.421       .  A
C2419      C2424   1.425       .  A
C2419     Br2426   1.926       .  S
C2420      C2421   1.406       .  A
C2421      C2422   1.372       .  A
C2421     Br2428   1.910       .  S
C2422      C2423   1.397       .  A
C2422     Br2427   1.904       .  S
C2423      C2424   1.416       .  A
C2424     Br2425   1.924       .  S
C2429      C2430   1.410       .  A
C2429      C2434   1.403       .  A
C2429     Br2436   1.936       .  S
C2430      C2431   1.424       .  A
C2431      C2432   1.414       .  A
C2431     Br2438   1.933       .  S
C2432      C2433   1.405       .  A
C2432     Br2437   1.930       .  S
C2433      C2434   1.414       .  A
C2434     Br2435   1.928       .  S
C2439      C2440   1.406       .  A
C2439      C2444   1.413       .  A
C2439     Br2446   1.931       .  S
C2440      C2441   1.434       .  A
C2441      C2442   1.401       .  A
C2441     Br2448   1.943       .  S
C2442      C2443   1.402       .  A
C2442     Br2447   1.937       .  S
C2443      C2444   1.429       .  A
C2444     Br2445   1.937       .  S
C2449      C2450   1.412       .  A
C2449      C2454   1.415       .  A
C2449     Br2456   1.934       .  S
C2450      C2451   1.409       .  A
C2451      C2452   1.403       .  A
C2451     Br2458   1.937       .  S
C2452      C2453   1.422       .  A
C2452     Br2457   1.932       .  S
C2453      C2454   1.424       .  A
C2454     Br2455   1.935       .  S
C2459      C2460   1.412       .  A
C2459      C2464   1.413       .  A
C2459     Br2466   1.928       .  S
C2460      C2461   1.411       .  A
C2461      C2462   1.407       .  A
C2461     Br2468   1.932       .  S
C2462      C2463   1.417       .  A
C2462     Br2467   1.938       .  S
C2463      C2464   1.415       .  A
C2464     Br2465   1.933       .  S
C2469      C2470   1.413       .  A
C2469      C2474   1.407       .  A
C2469     Br2476   1.934       .  S
C2470      C2471   1.421       .  A
C2471      C2472   1.418       .  A
C2471     Br2478   1.934       .  S
C2472      C2473   1.409       .  A
C2472     Br2477   1.920       .  S
C2473      C2474   1.416       .  A
C2474     Br2475   1.930       .  S
C2479      C2480   1.415       .  A
C2479      C2484   1.410       .  A
C2479     Br2486   1.929       .  S
C2480      C2481   1.406       .  A
C2481      C2482   1.415       .  A
C2481     Br2488   1.926       .  S
C2482      C2483   1.423       .  A
C2482     Br2487   1.935       .  S
C2483      C2484   1.414       .  A
C2484     Br2485   1.932       .  S
C2489      C2490   1.412       .  A
C2489      C2494   1.411       .  A
C2489     Br2496   1.941       .  S
C2490      C2491   1.413       .  A
C2491      C2492   1.414       .  A
C2491     Br2498   1.933       .  S
C2492      C2493   1.425       .  A
C2492     Br2497   1.937       .  S
C2493      C2494   1.429       .  A
C2494     Br2495   1.942       .  S
C2499      C2500   1.401       .  A
C2499      C2504   1.407       .  A
C2499     Br2506   1.940       .  S
C2500      C2501   1.425       .  A
C2501      C2502   1.416       .  A
C2501     Br2508   1.936       .  S
C2502      C2503   1.414       .  A
C2503      C2504   1.434       .  A
C2504     Br2505   1.933       .  S
C2509      C2510   1.403       .  A
C2509      C2514   1.416       .  A
C2509     Br2516   1.916       .  S
C2510      C2511   1.404       .  A
C2511      C2512   1.412       .  A
C2511     Br2518   1.923       .  S
C2512      C2513   1.418       .  A
C2512     Br2517   1.902       .  S
C2513      C2514   1.428       .  A
C2514     Br2515   1.928       .  S
C2519      C2520   1.417       .  A
C2519      C2524   1.412       .  A
C2519     Br2526   1.927       .  S
C2520      C2521   1.415       .  A
C2521      C2522   1.407       .  A
C2521     Br2528   1.935       .  S
C2522      C2523   1.410       .  A
C2522     Br2527   1.933       .  S
C2523      C2524   1.409       .  A
C2524     Br2525   1.931       .  S
C2529      C2530   1.425       .  A
C2529      C2534   1.416       .  A
C2529     Br2536   1.929       .  S
C2530      C2531   1.397       .  A
C2531      C2532   1.406       .  A
C2531     Br2538   1.940       .  S
C2532      C2533   1.435       .  A
C2532     Br2537   1.926       .  S
C2533      C2534   1.403       .  A
C2534     Br2535   1.927       .  S
C2539      C2540   1.415   1_655  A
C2539      C2544   1.407       .  A
C2539     Br2546   1.938       .  S
C2540      C2541   1.435       .  A
C2541      C2542   1.409       .  A
C2541     Br2548   1.939       .  S
C2542      C2543   1.398       .  A
C2542     Br2547   1.935       .  S
C2543      C2544   1.412   1_455  A
C2544     Br2545   1.920       .  S
C2549      C2550   1.400       .  A
C2549      C2554   1.407       .  A
C2549     Br2556   1.927       .  S
C2550      C2551   1.416       .  A
C2551      C2552   1.404       .  A
C2551     Br2558   1.920   1_455  S
C2552      C2553   1.415       .  A
C2552     Br2557   1.942   1_455  S
C2553      C2554   1.422       .  A
C2559      C2560   1.434       .  A
C2559      C2564   1.418       .  A
C2559     Br2566   1.937       .  S
C2560      C2561   1.414       .  A
C2561      C2562   1.409       .  A
C2561     Br2568   1.937       .  S
C2562      C2563   1.425       .  A
C2562     Br2567   1.940       .  S
C2563      C2564   1.404       .  A
C2564     Br2565   1.928       .  S
C2569      C2570   1.404       .  A
C2569      C2574   1.415       .  A
C2569     Br2576   1.927       .  S
C2570      C2571   1.415       .  A
C2571      C2572   1.407       .  A
C2571     Br2578   1.917       .  S
C2572      C2573   1.415       .  A
C2572     Br2577   1.938       .  S
C2573      C2574   1.426       .  A
C2574     Br2575   1.934       .  S
C2579      C2580   1.401       .  A
C2579      C2584   1.412       .  A
C2579     Br2586   1.930       .  S
C2580      C2581   1.417       .  A
C2581      C2582   1.407       .  A
C2581     Br2588   1.921       .  S
C2582      C2583   1.414       .  A
C2582     Br2587   1.941       .  S
C2583      C2584   1.431       .  A
C2589      C2590   1.407       .  A
C2589      C2594   1.400       .  A
C2589     Br2596   1.939       .  S
C2590      C2591   1.419       .  A
C2591      C2592   1.413       .  A
C2591     Br2598   1.925       .  S
C2592      C2593   1.407       .  A
C2592     Br2597   1.927       .  S
C2593      C2594   1.406       .  A
C2594     Br2595   1.898       .  S
C2599      C2600   1.403       .  A
C2599      C2604   1.415       .  A
C2599     Br2606   1.929       .  S
C2600      C2601   1.437       .  A
C2601      C2602   1.407       .  A
C2601     Br2608   1.935       .  S
C2602      C2603   1.395       .  A
C2602     Br2607   1.938       .  S
C2603      C2604   1.425       .  A
C2604     Br2605   1.931       .  S
C2609      C2610   1.405       .  A
C2609      C2614   1.411       .  A
C2609     Br2616   1.931       .  S
C2610      C2611   1.433       .  A
C2611      C2612   1.403       .  A
C2611     Br2618   1.932       .  S
C2612      C2613   1.396       .  A
C2612     Br2617   1.940       .  S
C2613      C2614   1.423       .  A
C2614     Br2615   1.933       .  S
C2619      C2620   1.410       .  A
C2619      C2624   1.410       .  A
C2619     Br2626   1.931       .  S
C2621      C2622   1.412       .  A
C2621     Br2628   1.933       .  S
C2622      C2623   1.409       .  A
C2622     Br2627   1.924       .  S
C2624     Br2625   1.916       .  S
C2629      C2630   1.408       .  A
C2629      C2634   1.405       .  A
C2629     Br2636   1.936       .  S
C2630      C2631   1.431       .  A
C2631      C2632   1.423       .  A
C2631     Br2638   1.933       .  S
C2632      C2633   1.412       .  A
C2632     Br2637   1.929       .  S
C2633      C2634   1.429       .  A
C2634     Br2635   1.942       .  S
C2639      C2640   1.403       .  A
C2639      C2644   1.400       .  A
C2639     Br2646   1.923       .  S
C2640      C2641   1.417       .  A
C2641      C2642   1.422       .  A
C2641     Br2648   1.927       .  S
C2642      C2643   1.418       .  A
C2642     Br2647   1.927       .  S
C2643      C2644   1.412       .  A
C2644     Br2645   1.910       .  S
C2649      C2650   1.405       .  A
C2649      C2654   1.423       .  A
C2649     Br2656   1.929       .  S
C2650      C2651   1.410       .  A
C2651      C2652   1.407       .  A
C2651     Br2658   1.904       .  S
C2652      C2653   1.415       .  A
C2652     Br2657   1.938       .  S
C2653      C2654   1.435       .  A
C2654     Br2655   1.935       .  S
C2659      C2660   1.406       .  A
C2659      C2664   1.417       .  A
C2659     Br2666   1.930       .  S
C2660      C2661   1.438       .  A
C2661      C2662   1.408       .  A
C2661     Br2668   1.935       .  S
C2662      C2663   1.397       .  A
C2662     Br2667   1.940       .  S
C2663      C2664   1.426       .  A
C2664     Br2665   1.933       .  S
C2669      C2674   1.408       .  A
C2669     Br2676   1.913       .  S
C2670      C2671   1.409       .  A
C2671      C2672   1.414       .  A
C2671     Br2678   1.926       .  S
C2672     Br2677   1.930       .  S
C2673      C2674   1.406       .  A
C2674     Br2675   1.927       .  S
C2679      C2680   1.412       .  A
C2679      C2684   1.410       .  A
C2679     Br2686   1.926       .  S
C2680      C2681   1.407       .  A
C2681      C2682   1.406       .  A
C2682      C2683   1.416       .  A
C2682     Br2687   1.935       .  S
C2683      C2684   1.412       .  A
C2684     Br2685   1.929       .  S
C2689      C2690   1.409       .  A
C2689      C2694   1.405       .  A
C2689     Br2696   1.931       .  S
C2690      C2691   1.408       .  A
C2691      C2692   1.405       .  A
C2691     Br2698   1.930       .  S
C2692      C2693   1.407       .  A
C2692     Br2697   1.927       .  S
C2693      C2694   1.407       .  A
C2694     Br2695   1.921       .  S
C2699      C2700   1.407       .  A
C2699      C2704   1.406       .  A
C2699     Br2706   1.928       .  S
C2700      C2701   1.410       .  A
C2701      C2702   1.409       .  A
C2701     Br2708   1.929       .  S
C2702      C2703   1.408       .  A
C2702     Br2707   1.927       .  S
C2703      C2704   1.408       .  A
C2704     Br2705   1.924       .  S
C2709      C2710   1.419       .  A
C2709      C2714   1.413       .  A
C2709     Br2716   1.938       .  S
C2710      C2711   1.429       .  A
C2711      C2712   1.417       .  A
C2711     Br2718   1.936       .  S
C2712      C2713   1.404       .  A
C2712     Br2717   1.929       .  S
C2713      C2714   1.416       .  A
C2714     Br2715   1.927       .  S
C2719      C2720   1.424       .  A
C2719      C2724   1.424       .  A
C2719     Br2726   1.927       .  S
C2720      C2721   1.398       .  A
C2721      C2722   1.392       .  A
C2721     Br2728   1.919       .  S
C2722      C2723   1.411       .  A
C2722     Br2727   1.904       .  S
C2723      C2724   1.413       .  A
C2724     Br2725   1.925       .  S
C2729      C2730   1.418       .  A
C2729      C2734   1.406       .  A
C2729     Br2736   1.941       .  S
C2730      C2731   1.417       .  A
C2731      C2732   1.415       .  A
C2731     Br2738   1.930       .  S
C2732      C2733   1.410       .  A
C2732     Br2737   1.925       .  S
C2733      C2734   1.410       .  A
C2734     Br2735   1.932       .  S
C2739      C2740   1.431       .  A
C2739      C2744   1.415       .  A
C2739     Br2746   1.941       .  S
C2740      C2741   1.419       .  A
C2741      C2742   1.414       .  A
C2741     Br2748   1.932       .  S
C2742      C2743   1.416       .  A
C2742     Br2747   1.927       .  S
C2743      C2744   1.407       .  A
C2744     Br2745   1.920       .  S
C2749      C2750   1.411       .  A
C2749      C2754   1.422       .  A
C2749     Br2756   1.931       .  S
C2750      C2751   1.426       .  A
C2751      C2752   1.404       .  A
C2751     Br2758   1.939       .  S
C2752      C2753   1.411       .  A
C2752     Br2757   1.933       .  S
C2753      C2754   1.436       .  A
C2754     Br2755   1.936       .  S
C2759      C2760   1.412       .  A
C2759      C2764   1.405       .  A
C2759     Br2766   1.935       .  S
C2760      C2761   1.407       .  A
C2761      C2762   1.406       .  A
C2762      C2763   1.408       .  A
C2762     Br2767   1.917       .  S
C2763      C2764   1.408       .  A
C2764     Br2765   1.925       .  S
C2769      C2770   1.395       .  A
C2769      C2774   1.406       .  A
C2769     Br2776   1.940       .  S
C2770      C2771   1.424       .  A
C2771      C2772   1.413       .  A
C2771     Br2778   1.933       .  S
C2772      C2773   1.405       .  A
C2772     Br2777   1.930       .  S
C2773      C2774   1.438       .  A
C2779      C2780   1.426       .  A
C2779      C2784   1.416       .  A
C2779     Br2786   1.933       .  S
C2780      C2781   1.402       .  A
C2781      C2782   1.410       .  A
C2781     Br2788   1.941       .  S
C2782      C2783   1.436       .  A
C2782     Br2787   1.935       .  S
C2783      C2784   1.408       .  A
C2784     Br2785   1.933       .  S
C2789      C2794   1.410       .  A
C2791      C2792   1.409       .  A
C2791     Br2798   1.935       .  S
C2792      C2793   1.417       .  A
C2792     Br2797   1.922       .  S
C2793      C2794   1.402       .  A
C2794     Br2795   1.927       .  S
C2799      C2800   1.425       .  A
C2799      C2804   1.409       .  A
C2799     Br2806   1.928       .  S
C2800      C2801   1.410       .  A
C2801      C2802   1.409       .  A
C2801     Br2808   1.938       .  S
C2802      C2803   1.419       .  A
C2802     Br2807   1.918       .  S
C2803      C2804   1.404       .  A
C2804     Br2805   1.928       .  S
C2809      C2810   1.411   1_565  A
C2809      C2814   1.421       .  A
C2809     Br2816   1.925       .  S
C2810      C2811   1.417       .  A
C2811      C2812   1.412       .  A
C2811     Br2818   1.892       .  S
C2812      C2813   1.410   1_545  A
C2812     Br2817   1.944       .  S
C2813      C2814   1.419       .  A
C2814     Br2815   1.921       .  S
C2819      C2820   1.412   1_545  A
C2819      C2824   1.391       .  A
C2819     Br2826   1.907       .  S
C2820      C2821   1.414       .  A
C2821      C2822   1.426       .  A
C2821     Br2828   1.925       .  S
C2822      C2823   1.424       .  A
C2822     Br2827   1.926       .  S
C2823      C2824   1.400   1_565  A
C2824     Br2825   1.922       .  S
C2829      C2830   1.413       .  A
C2829      C2834   1.414       .  A
C2829     Br2836   1.935       .  S
C2830      C2831   1.417   1_655  A
C2831      C2832   1.408       .  A
C2831     Br2838   1.942       .  S
C2832      C2833   1.426   1_455  A
C2832     Br2837   1.946       .  S
C2833      C2834   1.424       .  A
C2834     Br2835   1.937       .  S
C2839      C2840   1.418       .  A
C2839      C2844   1.402       .  A
C2839     Br2846   1.926       .  S
C2840      C2841   1.406       .  A
C2841      C2842   1.420       .  A
C2841     Br2848   1.930       .  S
C2842      C2843   1.438       .  A
C2842     Br2847   1.936       .  S
C2843      C2844   1.410       .  A
C2844     Br2845   1.930       .  S
C2849      C2850   1.407       .  A
C2849      C2854   1.415       .  A
C2849     Br2856   1.923       .  S
C2850      C2851   1.406       .  A
C2851      C2852   1.415       .  A
C2851     Br2858   1.909       .  S
C2852      C2853   1.425       .  A
C2852     Br2857   1.939       .  S
C2853      C2854   1.418       .  A
C2854     Br2855   1.919       .  S
C2859      C2860   1.414       .  A
C2859      C2864   1.416       .  A
C2859     Br2866   1.934       .  S
C2860      C2861   1.415   1_655  A
C2861      C2862   1.405       .  A
C2861     Br2868   1.937       .  S
C2862      C2863   1.422   1_455  A
C2862     Br2867   1.944       .  S
C2863      C2864   1.423       .  A
C2864     Br2865   1.935       .  S
C2869      C2870   1.410       .  A
C2869      C2874   1.420       .  A
C2869     Br2876   1.931       .  S
C2870      C2871   1.434       .  A
C2871      C2872   1.408       .  A
C2871     Br2878   1.935       .  S
C2872      C2873   1.400       .  A
C2872     Br2877   1.933       .  S
C2873      C2874   1.427       .  A
C2874     Br2875   1.931       .  S
C2879      C2884   1.405       .  A
C2881      C2882   1.401       .  A
C2881     Br2888   1.936   1_455  S
C2882      C2883   1.422       .  A
C2882     Br2887   1.913   1_455  S
C2883      C2884   1.409       .  A
C2884     Br2885   1.933       .  S
C2889      C2890   1.397       .  A
C2889      C2894   1.407       .  A
C2889     Br2896   1.939       .  S
C2890      C2891   1.412       .  A
C2891      C2892   1.405   1_455  A
C2891     Br2898   1.919   1_455  S
C2892      C2893   1.413   1_655  A
C2892     Br2897   1.939       .  S
C2893      C2894   1.436       .  A
C2894     Br2895   1.936       .  S
C2899      C2900   1.392       .  A
C2899      C2904   1.404       .  A
C2899     Br2906   1.946       .  S
C2900      C2901   1.424       .  A
C2901      C2902   1.413       .  A
C2901     Br2908   1.934       .  S
C2902      C2903   1.406       .  A
C2902     Br2907   1.931       .  S
C2903      C2904   1.444       .  A
C2909      C2910   1.427       .  A
C2909      C2914   1.416       .  A
C2909     Br2916   1.936       .  S
C2910      C2911   1.427       .  A
C2911      C2912   1.407   1_455  A
C2911     Br2918   1.944   1_455  S
C2912      C2913   1.412   1_655  A
C2912     Br2917   1.935       .  S
C2913      C2914   1.411       .  A
C2914     Br2915   1.935       .  S
C2919      C2920   1.416       .  A
C2919      C2924   1.400       .  A
C2919     Br2926   1.923       .  S
C2920      C2921   1.419       .  A
C2921      C2922   1.415       .  A
C2922      C2923   1.411       .  A
C2922     Br2927   1.927       .  S
C2923      C2924   1.403       .  A
C2924     Br2925   1.933       .  S
C2929      C2930   1.408       .  A
C2929      C2934   1.406       .  A
C2929     Br2936   1.930       .  S
C2930      C2931   1.409       .  A
C2931      C2932   1.406       .  A
C2931     Br2938   1.930       .  S
C2932      C2933   1.408       .  A
C2932     Br2937   1.927       .  S
C2933      C2934   1.408       .  A
C2934     Br2935   1.922       .  S
C2939      C2940   1.425       .  A
C2939      C2944   1.422       .  A
C2939     Br2946   1.933       .  S
C2940      C2941   1.415       .  A
C2941      C2942   1.399       .  A
C2941     Br2948   1.934       .  S
C2942      C2943   1.416       .  A
C2942     Br2947   1.938       .  S
C2943      C2944   1.418       .  A
C2944     Br2945   1.932       .  S
C2949      C2950   1.418   1_655  A
C2949      C2954   1.429       .  A
C2949     Br2956   1.925       .  S
C2950      C2951   1.400       .  A
C2951      C2952   1.396       .  A
C2951     Br2958   1.910       .  S
C2952      C2953   1.411   1_455  A
C2952     Br2957   1.910       .  S
C2953      C2954   1.422       .  A
C2954     Br2955   1.926       .  S
C2959      C2960   1.431       .  A
C2959      C2964   1.418       .  A
C2959     Br2966   1.936       .  S
C2960      C2961   1.423       .  A
C2961      C2962   1.415       .  A
C2961     Br2968   1.938       .  S
C2962      C2963   1.414       .  A
C2963      C2964   1.404       .  A
C2964     Br2965   1.930       .  S
C2969      C2970   1.424       .  A
C2969      C2974   1.410       .  A
C2969     Br2976   1.935       .  S
C2970      C2971   1.422       .  A
C2971      C2972   1.405       .  A
C2971     Br2978   1.940       .  S
C2972      C2973   1.407       .  A
C2972     Br2977   1.931       .  S
C2973      C2974   1.404       .  A
C2974     Br2975   1.923       .  S
C2979      C2980   1.396       .  A
C2979      C2984   1.407       .  A
C2979     Br2986   1.943       .  S
C2980      C2981   1.423       .  A
C2981      C2982   1.417       .  A
C2981     Br2988   1.931       .  S
C2982      C2983   1.409       .  A
C2982     Br2987   1.931       .  S
C2983      C2984   1.439       .  A
C2984     Br2985   1.930       .  S
C2989      C2990   1.430       .  A
C2989      C2994   1.398       .  A
C2989     Br2996   1.930       .  S
C2990      C2991   1.402       .  A
C2991      C2992   1.413       .  A
C2991     Br2998   1.928       .  S
C2992      C2993   1.428       .  A
C2992     Br2997   1.939       .  S
C2993      C2994   1.393       .  A
C2994     Br2995   1.934       .  S
C2999      C3000   1.410       .  A
C2999      C3004   1.408       .  A
C2999     Br3006   1.931       .  S
C3000      C3001   1.413       .  A
C3001      C3002   1.413       .  A
C3001     Br3008   1.931       .  S
C3002      C3003   1.415       .  A
C3002     Br3007   1.930       .  S
C3003      C3004   1.415       .  A
C3004     Br3005   1.935       .  S
C3009      C3010   1.419       .  A
C3009      C3014   1.419       .  A
C3009     Br3016   1.930       .  S
C3010      C3011   1.409       .  A
C3011      C3012   1.411       .  A
C3011     Br3018   1.907       .  S
C3012      C3013   1.412       .  A
C3012     Br3017   1.924       .  S
C3013      C3014   1.412       .  A
C3014     Br3015   1.912       .  S
C3019      C3020   1.416       .  A
C3019      C3024   1.410   1_545  A
C3019     Br3026   1.917   1_545  S
C3020      C3021   1.403       .  A
C3021      C3022   1.414       .  A
C3021     Br3028   1.928       .  S
C3022      C3023   1.422       .  A
C3022     Br3027   1.920       .  S
C3023      C3024   1.418   1_545  A
C3024     Br3025   1.941       .  S
C3029      C3030   1.412   1_565  A
C3029      C3034   1.409       .  A
C3029     Br3036   1.953       .  S
C3030      C3031   1.426       .  A
C3031      C3032   1.415       .  A
C3031     Br3038   1.935       .  S
C3032      C3033   1.407       .  A
C3032     Br3037   1.933       .  S
C3033      C3034   1.425   1_545  A
C3034     Br3035   1.919       .  S
C3039      C3040   1.407       .  A
C3039      C3044   1.412       .  A
C3039     Br3046   1.932       .  S
C3040      C3041   1.435       .  A
C3041      C3042   1.406       .  A
C3041     Br3048   1.942       .  S
C3042      C3043   1.404       .  A
C3042     Br3047   1.942       .  S
C3043      C3044   1.424       .  A
C3044     Br3045   1.934       .  S
C3049      C3050   1.424       .  A
C3049      C3054   1.413       .  A
C3049     Br3056   1.938       .  S
C3050      C3051   1.420       .  A
C3051      C3052   1.402       .  A
C3051     Br3058   1.943   1_545  S
C3052      C3053   1.413       .  A
C3052     Br3057   1.932   1_545  S
C3053      C3054   1.414       .  A
C3054     Br3055   1.936       .  S
C3059      C3064   1.405       .  A
C3059     Br3066   1.917   1_545  S
C3060      C3061   1.411       .  A
C3061      C3062   1.418       .  A
C3061     Br3068   1.929       .  S
C3062     Br3067   1.931       .  S
C3063      C3064   1.408       .  A
C3064     Br3065   1.935       .  S
C3069      C3070   1.400       .  A
C3069      C3074   1.410       .  A
C3069     Br3076   1.932       .  S
C3070      C3071   1.417   1_565  A
C3071      C3072   1.403       .  A
C3071     Br3078   1.923       .  S
C3072      C3073   1.415       .  A
C3072     Br3077   1.940       .  S
C3073      C3074   1.427   1_545  A
C3074     Br3075   1.927       .  S
C3079      C3080   1.413   1_545  A
C3079      C3084   1.408       .  A
C3079     Br3086   1.924       .  S
C3080      C3081   1.400       .  A
C3081      C3082   1.411       .  A
C3081     Br3088   1.936       .  S
C3082      C3083   1.435       .  A
C3082     Br3087   1.938       .  S
C3083      C3084   1.415   1_565  A
C3084     Br3085   1.937       .  S
C3089      C3090   1.413       .  A
C3089      C3094   1.419       .  A
C3089     Br3096   1.934       .  S
C3090      C3091   1.417       .  A
C3091      C3092   1.406       .  A
C3091     Br3098   1.936       .  S
C3092      C3093   1.423       .  A
C3092     Br3097   1.944       .  S
C3093      C3094   1.427       .  A
C3094     Br3095   1.935       .  S
C3099      C3100   1.399       .  A
C3099      C3104   1.408       .  A
C3099     Br3106   1.940       .  S
C3100      C3101   1.426       .  A
C3101      C3102   1.418       .  A
C3101     Br3108   1.933       .  S
C3102      C3103   1.407       .  A
C3102     Br3107   1.929       .  S
C3103      C3104   1.438       .  A
C3104     Br3105   1.938       .  S
C3109      C3110   1.436       .  A
C3109      C3114   1.409       .  A
C3109     Br3116   1.934       .  S
C3110      C3111   1.407       .  A
C3111      C3112   1.416       .  A
C3111     Br3118   1.930       .  S
C3112      C3113   1.425       .  A
C3112     Br3117   1.932       .  S
C3113      C3114   1.399       .  A
C3114     Br3115   1.938       .  S
C3119      C3120   1.415       .  A
C3119      C3124   1.396       .  A
C3119     Br3126   1.921       .  S
C3120      C3121   1.412       .  A
C3121      C3122   1.417       .  A
C3121     Br3128   1.931       .  S
C3122      C3123   1.422       .  A
C3122     Br3127   1.934       .  S
C3123      C3124   1.407       .  A
C3124     Br3125   1.941       .  S
C3129      C3130   1.422       .  A
C3129      C3134   1.405       .  A
C3129     Br3136   1.938       .  S
C3130      C3131   1.404       .  A
C3131      C3132   1.417       .  A
C3131     Br3138   1.928       .  S
C3132      C3133   1.437       .  A
C3132     Br3137   1.940       .  S
C3133      C3134   1.414       .  A
C3134     Br3135   1.937       .  S
C3139      C3140   1.402       .  A
C3139      C3144   1.413       .  A
C3139     Br3146   1.935       .  S
C3140      C3141   1.412       .  A
C3141      C3142   1.407       .  A
C3141     Br3148   1.932       .  S
C3142      C3143   1.416       .  A
C3142     Br3147   1.936       .  S
C3143      C3144   1.432       .  A
C3144     Br3145   1.933       .  S
C3149      C3150   1.398       .  A
C3149      C3154   1.410       .  A
C3149     Br3156   1.935       .  S
C3150      C3151   1.415       .  A
C3151      C3152   1.409       .  A
C3151     Br3158   1.927       .  S
C3152      C3153   1.418       .  A
C3152     Br3157   1.939       .  S
C3153      C3154   1.437       .  A
C3159      C3160   1.409       .  A
C3159      C3164   1.420       .  A
C3159     Br3166   1.931       .  S
C3160      C3161   1.437       .  A
C3161      C3162   1.409       .  A
C3161     Br3168   1.934       .  S
C3162      C3163   1.402       .  A
C3162     Br3167   1.942       .  S
C3163      C3164   1.428       .  A
C3164     Br3165   1.934       .  S
C3169      C3170   1.414       .  A
C3169      C3174   1.400       .  A
C3169     Br3176   1.931       .  S
C3170      C3171   1.415       .  A
C3171      C3172   1.421       .  A
C3171     Br3178   1.931       .  S
C3172      C3173   1.421       .  A
C3172     Br3177   1.929       .  S
C3173      C3174   1.417       .  A
C3174     Br3175   1.943       .  S
C3179      C3180   1.430       .  A
C3179      C3184   1.410       .  A
C3179     Br3186   1.945       .  S
C3180      C3181   1.421       .  A
C3181      C3182   1.414       .  A
C3181     Br3188   1.938       .  S
C3182      C3183   1.419       .  A
C3182     Br3187   1.935       .  S
C3183      C3184   1.413       .  A
C3184     Br3185   1.942       .  S
C3189      C3190   1.417       .  A
C3189      C3194   1.401       .  A
C3189     Br3196   1.943       .  S
C3190      C3191   1.421       .  A
C3191      C3192   1.413       .  A
C3191     Br3198   1.934       .  S
C3192      C3193   1.412       .  A
C3192     Br3197   1.934       .  S
C3193      C3194   1.411       .  A
C3194     Br3195   1.928       .  S
C3199      C3200   1.417       .  A
C3199      C3204   1.404       .  A
C3199     Br3206   1.939       .  S
C3200      C3201   1.417       .  A
C3201      C3202   1.412       .  A
C3201     Br3208   1.933       .  S
C3202      C3203   1.416       .  A
C3202     Br3207   1.934       .  S
C3203      C3204   1.409       .  A
C3204     Br3205   1.927       .  S
C3209      C3214   1.397       .  A
C3211      C3212   1.409       .  A
C3211     Br3218   1.933       .  S
C3212      C3213   1.423       .  A
C3212     Br3217   1.913       .  S
C3213      C3214   1.404       .  A
C3214     Br3215   1.936       .  S
C3219      C3220   1.431       .  A
C3219      C3224   1.411       .  A
C3219     Br3226   1.930       .  S
C3220      C3221   1.414       .  A
C3221      C3222   1.404       .  A
C3221     Br3228   1.942       .  S
C3222      C3223   1.414       .  A
C3222     Br3227   1.918       .  S
C3223      C3224   1.401       .  A
C3224     Br3225   1.937       .  S
C3229      C3234   1.411       .  A
C3229     Br3236   1.945       .  S
C3230      C3231   1.418       .  A
C3231      C3232   1.418   1_556  A
C3231     Br3238   1.936       .  S
C3232     Br3237   1.936       .  S
C3233      C3234   1.426   1_565  A
C3234     Br3235   1.946       .  S
C3239      C3240   1.414       .  A
C3239      C3244   1.412       .  A
C3239     Br3246   1.928       .  S
C3240      C3241   1.410       .  A
C3241      C3242   1.410       .  A
C3241     Br3248   1.933   1_556  S
C3242      C3243   1.416       .  A
C3242     Br3247   1.934       .  S
C3243      C3244   1.415       .  A
C3244     Br3245   1.933       .  S
C3249      C3250   1.427       .  A
C3249      C3254   1.417       .  A
C3249     Br3256   1.939       .  S
C3250      C3251   1.407       .  A
C3251      C3252   1.411       .  A
C3251     Br3258   1.945       .  S
C3252      C3253   1.437       .  A
C3252     Br3257   1.940       .  S
C3253      C3254   1.414       .  A
C3254     Br3255   1.934       .  S
C3259      C3260   1.402       .  A
C3259      C3264   1.415       .  A
C3260      C3261   1.396       .  A
C3261      C3262   1.411       .  A
C3261     Br3268   1.934       .  S
C3262      C3263   1.423       .  A
C3262     Br3267   1.878       .  S
C3263      C3264   1.424       .  A
C3269      C3270   1.415       .  A
C3269      C3274   1.411       .  A
C3269     Br3276   1.931       .  S
C3270      C3271   1.399       .  A
C3271      C3272   1.398       .  A
C3271     Br3278   1.935       .  S
C3272      C3273   1.408       .  A
C3272     Br3277   1.894       .  S
C3273      C3274   1.410       .  A
C3274     Br3275   1.929       .  S
C3279      C3280   1.410       .  A
C3279      C3284   1.414       .  A
C3279     Br3286   1.932       .  S
C3280      C3281   1.405       .  A
C3281      C3282   1.401       .  A
C3281     Br3288   1.936       .  S
C3282      C3283   1.416       .  A
C3282     Br3287   1.919       .  S
C3283      C3284   1.421       .  A
C3284     Br3285   1.934       .  S
C3289      C3290   1.395       .  A
C3289      C3294   1.400       .  A
C3289     Br3296   1.939       .  S
C3290      C3291   1.425       .  A
C3291      C3292   1.414       .  A
C3291     Br3298   1.929       .  S
C3292      C3293   1.403       .  A
C3292     Br3297   1.927       .  S
C3293      C3294   1.434       .  A
C3294     Br3295   1.925       .  S
C3299      C3300   1.423       .  A
C3299      C3304   1.412       .  A
C3299     Br3306   1.938       .  S
C3300      C3301   1.428       .  A
C3301      C3302   1.416       .  A
C3301     Br3308   1.935       .  S
C3302      C3303   1.403       .  A
C3302     Br3307   1.931       .  S
C3303      C3304   1.412       .  A
C3304     Br3305   1.933       .  S
C3309      C3310   1.415   1_565  A
C3309      C3314   1.410   1_565  A
C3309     Br3316   1.902       .  S
C3310      C3311   1.411       .  A
C3311      C3312   1.421       .  A
C3311     Br3318   1.928       .  S
C3312      C3313   1.422       .  A
C3312     Br3317   1.924       .  S
C3313      C3314   1.418       .  A
C3314     Br3315   1.950   1_545  S
C3319      C3320   1.422       .  A
C3319      C3324   1.415       .  A
C3319     Br3326   1.913       .  S
C3320      C3321   1.414       .  A
C3321      C3322   1.385       .  A
C3321     Br3328   1.927       .  S
C3322      C3323   1.410       .  A
C3322     Br3327   1.940       .  S
C3323      C3324   1.411       .  A
C3324     Br3325   1.922       .  S
