geometry optimzed in LAMMPS
_audit_creation_date              2020-11-30 
_audit_creation_method            'lammps2cif' 
_symmetry_space_group_name_H-M    'P1' 
_symmetry_Int_Tables_number       1 
_symmetry_cell_setting            triclinic 
loop_ 
_symmetry_equiv_pos_as_xyz 
  x,y,z 
_cell_length_a                    48.26723268183823 
_cell_length_b                    48.08924983111242 
_cell_length_c                    34.22351669814432 
_cell_angle_alpha                 90.244340137202 
_cell_angle_beta                  91.31642976383854 
_cell_angle_gamma                 90.1328578060678 
loop_ 
_atom_site_label 
_atom_site_type_symbol 
_atom_site_fract_x 
_atom_site_fract_y 
_atom_site_fract_z 
_atom_site_charge 
Zn1        Zn  0.08921227  0.75437976  0.16818331     1.49720
Zn2        Zn  0.11228030  0.75086288  0.25681055     1.49360
Zn3        Zn  0.13913535  0.71593022  0.18924806     1.49110
Zn4        Zn  0.14324159  0.78494519  0.19238962     1.49480
O5          O  0.12156218  0.75129701  0.20121656    -1.83350
O6          O  0.05696671  0.75768462  0.19988996    -0.73980
O7          O  0.11791708  0.71338525  0.28271492    -0.73800
O8          O  0.12131743  0.69669174  0.14198954    -0.73310
O9          O  0.07216383  0.75507063  0.26149347    -0.73990
O10         O  0.08348290  0.72207463  0.13333570    -0.73590
O11         O  0.13083673  0.68736683  0.23241382    -0.74180
O12         O  0.18191709  0.77210052  0.17767434    -0.73570
O13         O  0.12385511  0.78580505  0.28597932    -0.74320
O14         O  0.17890283  0.72532200  0.17452083    -0.73710
O15         O  0.13385778  0.81314571  0.23607002    -0.74180
O16         O  0.12979929  0.80754003  0.14585588    -0.74090
O17         O  0.08862032  0.78829933  0.13581270    -0.73880
C18         C  0.05296319  0.75807764  0.23623675     0.77910
C19         C  0.12160092  0.68959730  0.26700074     0.78400
C20         C  0.09817882  0.70122322  0.12467207     0.77360
C21         C  0.19190992  0.74821348  0.16886746     0.77740
C22         C  0.12408177  0.80979091  0.27012023     0.78870
C23         C  0.10608402  0.80728831  0.12907261     0.77920
Zn24       Zn  0.90117568  0.72546652  0.18490686     1.49720
Zn25       Zn  0.88882653  0.78751496  0.18990717     1.49360
Zn26       Zn  0.85799927  0.74987242  0.13168542     1.49110
Zn27       Zn  0.84782954  0.74871388  0.22882444     1.49480
O28         O  0.87234439  0.75164282  0.18394119    -1.83350
O29         O  0.93630126  0.74347359  0.19712823    -0.73980
O30         O  0.89723776  0.80501624  0.14030589    -0.73800
O31         O  0.86796687  0.71444238  0.10303158    -0.73310
O32         O  0.92346973  0.78431441  0.22139548    -0.73990
O33         O  0.90390227  0.70112782  0.13920649    -0.73590
O34         O  0.86857064  0.78304879  0.09933391    -0.74180
O35         O  0.80762282  0.74673591  0.20042547    -0.73570
O36         O  0.86439086  0.81333352  0.21674683    -0.74320
O37         O  0.81880839  0.74902282  0.13721621    -0.73710
O38         O  0.85847405  0.78431839  0.26478182    -0.74180
O39         O  0.86021486  0.71280714  0.26206062    -0.74090
O40         O  0.89665546  0.70030372  0.22770434    -0.73880
C41         C  0.94131203  0.76534523  0.21690412     0.77910
C42         C  0.88592309  0.80241879  0.10673490     0.78400
C43         C  0.88775418  0.69762045  0.10998623     0.77360
C44         C  0.80093386  0.74677099  0.16350958     0.77740
C45         C  0.86561403  0.80859144  0.25295007     0.78870
C46         C  0.88135137  0.69701974  0.25674881     0.77920
Zn47       Zn  0.99794543  0.59220767  0.38282383     1.49720
Zn48       Zn  0.02810947  0.63769859  0.43330879     1.49360
Zn49       Zn  0.96378392  0.63842542  0.42323494     1.49110
Zn50       Zn  0.99140966  0.60111816  0.48175964     1.49480
O51         O  0.99564560  0.61566308  0.42967749    -1.83350
O52         O  0.03501360  0.60127955  0.35125996    -0.73980
O53         O  0.01709679  0.67638420  0.43468288    -0.73800
O54         O  0.93588859  0.62292955  0.38686713    -0.73310
O55         O  0.05153820  0.63518481  0.38859198    -0.73990
O56         O  0.96530751  0.60591899  0.34458294    -0.73590
O57         O  0.97489920  0.67536735  0.40693328    -0.74180
O58         O  0.95423971  0.60930967  0.00681755    -0.73570
O59         O  0.05218639  0.63135662  0.47915363    -0.74320
O60         O  0.94358509  0.64549237  0.47042772    -0.73710
O61         O  0.02024351  0.61771920  0.02024473    -0.74180
O62         O  0.99491498  0.56121111  0.47332647    -0.74090
O63         O  0.99620931  0.55205741  0.40848361    -0.73880
C64         C  0.05306964  0.62052808  0.35806585     0.77910
C65         C  0.99626679  0.68834292  0.41921778     0.78400
C66         C  0.94271072  0.61880274  0.35203794     0.77360
C67         C  0.93936740  0.63062761  0.99994332     0.77740
C68         C  0.04361891  0.62885261  0.01353764     0.78870
C69         C  0.99577556  0.54426891  0.44466381     0.77920
Zn70       Zn  0.96603587  0.85523685  0.42579932     1.49720
Zn71       Zn  0.99381435  0.90405905  0.38541352     1.49360
Zn72       Zn  0.99486432  0.89210255  0.48254374     1.49110
Zn73       Zn  0.03122591  0.85764089  0.43069387     1.49480
O74         O  0.99752433  0.87872788  0.42976934    -1.83350
O75         O  0.94940708  0.85184064  0.37438441    -0.73980
O76         O  0.99307667  0.94358773  0.41446618    -0.73800
O77         O  0.96156920  0.87786594  0.00997182    -0.73310
O78         O  0.95606630  0.89424074  0.35204954    -0.73990
O79         O  0.93522009  0.86532243  0.45963924    -0.73590
O80         O  0.99196362  0.93171979  0.47799947    -0.74180
O81         O  0.05491669  0.86026041  0.47870168    -0.73570
O82         O  0.02839987  0.89480014  0.34906614    -0.74320
O83         O  0.02710375  0.88254958  0.01815944    -0.73710
O84         O  0.05345195  0.86512310  0.38533715    -0.74180
O85         O  0.02145155  0.81807225  0.42797531    -0.74090
O86         O  0.97630230  0.81769860  0.43810914    -0.73880
C87         C  0.94295785  0.87082382  0.35063951     0.77910
C88         C  0.99174621  0.94983479  0.45123422     0.78400
C89         C  0.93860009  0.86905857  0.99598882     0.77360
C90         C  0.04922940  0.86905661  0.01253671     0.77740
C91         C  0.04937506  0.87841922  0.35392160     0.78870
C92         C  0.99899813  0.80516322  0.43388109     0.77920
Zn93       Zn  0.65078197  0.74791021  0.01541521     1.49720
Zn94       Zn  0.63360403  0.75068496  0.11063204     1.49360
Zn95       Zn  0.59782917  0.77676954  0.04717592     1.49110
Zn96       Zn  0.60337913  0.71061595  0.05431432     1.49480
O97         O  0.62251470  0.74643807  0.05614007    -1.83350
O98         O  0.68851165  0.74904168  0.04992277    -0.73980
O99         O  0.61998782  0.78511621  0.13798599    -0.73800
O100        O  0.60784810  0.80229329  0.00663821    -0.73310
O101        O  0.67342196  0.75071532  0.11147468    -0.73990
O102        O  0.64379028  0.78324962  0.47788724    -0.73590
O103        O  0.59011848  0.79962098  0.09314654    -0.74180
O104        O  0.56427313  0.71701161  0.03953310    -0.73570
O105        O  0.61949409  0.72033556  0.14493066    -0.74320
O106        O  0.56283245  0.76227318  0.02892619    -0.73710
O107        O  0.60193160  0.68898865  0.10380620    -0.74180
O108        O  0.61568260  0.68625087  0.01272584    -0.74090
O109        O  0.64355827  0.71280092  0.47802611    -0.73880
C110        C  0.69298472  0.75052091  0.08739830     0.77910
C111        C  0.60033322  0.80108503  0.12740114     0.78400
C112        C  0.62508309  0.80224305  0.47955187     0.77360
C113        C  0.55137351  0.73863173  0.02864797     0.77740
C114        C  0.60707607  0.69745603  0.13828066     0.78870
C115        C  0.62865267  0.69075779  0.48166256     0.77920
Zn116      Zn  0.34702092  0.70999101  0.06935472     1.49720
Zn117      Zn  0.34590455  0.77999205  0.06515988     1.49360
Zn118      Zn  0.39640698  0.74615896  0.10035450     1.49110
Zn119      Zn  0.37859116  0.74261011  0.00740793     1.49480
O120        O  0.36648463  0.74494991  0.06146917    -1.83350
O121        O  0.30752337  0.72139085  0.08153386    -0.73980
O122        O  0.35933502  0.80359285  0.11160442    -0.73800
O123        O  0.39703759  0.71397276  0.13744410    -0.73310
O124        O  0.30617998  0.76822869  0.07742370    -0.73990
O125        O  0.36124678  0.68857811  0.11682846    -0.73590
O126        O  0.39638555  0.78054681  0.13305384    -0.74180
O127        O  0.41817358  0.73639423  0.01013015    -0.73570
O128        O  0.35475960  0.80681081  0.01891440    -0.74320
O129        O  0.43119255  0.74483381  0.07209904    -0.73710
O130        O  0.37722007  0.77891173  0.47876452    -0.74180
O131        O  0.36635712  0.70942534  0.47544516    -0.74090
O132        O  0.35668332  0.68213828  0.02523311    -0.73880
C133        C  0.29515623  0.74475739  0.08607425     0.77910
C134        C  0.38026986  0.80130668  0.13464593     0.78400
C135        C  0.38179288  0.69256191  0.14009723     0.77360
C136        C  0.43648517  0.73959022  0.03669022     0.77740
C137        C  0.36923310  0.80311272  0.48840029     0.78870
C138        C  0.36481373  0.68527430  0.49024861     0.77920
Zn139      Zn  0.45817036  0.59720425  0.32278509     1.49720
Zn140      Zn  0.52753095  0.60004775  0.31563693     1.49360
Zn141      Zn  0.48562075  0.63998218  0.27966323     1.49110
Zn142      Zn  0.49428111  0.64122843  0.37026320     1.49480
O143        O  0.49231574  0.61809140  0.32485627    -1.83350
O144        O  0.47019734  0.55834869  0.30457609    -0.73980
O145        O  0.54814036  0.61755027  0.26978672    -0.73800
O146        O  0.46276915  0.62205926  0.23752723    -0.73310
O147        O  0.51660607  0.56005193  0.30099488    -0.73990
O148        O  0.43149568  0.61355536  0.28134088    -0.73590
O149        O  0.52014328  0.65265936  0.25722540    -0.74180
O150        O  0.48531106  0.67955341  0.35351266    -0.73570
O151        O  0.55590838  0.60875402  0.36080459    -0.74320
O152        O  0.46547187  0.67340172  0.29503046    -0.73710
O153        O  0.53358979  0.64237342  0.39240192    -0.74180
O154        O  0.46320435  0.63310964  0.40782181    -0.74090
O155        O  0.43609057  0.60403454  0.37302412    -0.73880
C156        C  0.49341105  0.54716231  0.29568311     0.77910
C157        C  0.54325975  0.64071076  0.25312916     0.78400
C158        C  0.43763661  0.62113404  0.24706038     0.77360
C159        C  0.47143057  0.68864865  0.32426141     0.77740
C160        C  0.55570828  0.62883147  0.38563405     0.78870
C161        C  0.44018119  0.62032772  0.40236386     0.77920
Zn162      Zn  0.48710887  0.85214994  0.27614332     1.49720
Zn163      Zn  0.52646434  0.89537916  0.31326238     1.49360
Zn164      Zn  0.45739028  0.89630178  0.31783780     1.49110
Zn165      Zn  0.49325867  0.85400156  0.36772693     1.49480
O166        O  0.49170725  0.87573789  0.32080054    -1.83350
O167        O  0.52250300  0.84268933  0.25225444    -0.73980
O168        O  0.51538425  0.93525197  0.29827244    -0.73800
O169        O  0.43134001  0.87952371  0.27606585    -0.73310
O170        O  0.54606039  0.88134171  0.26510223    -0.73990
O171        O  0.46263288  0.86728586  0.23370640    -0.73590
O172        O  0.46879415  0.93492529  0.29771526    -0.74180
O173        O  0.46202423  0.86264150  0.40458022    -0.73570
O174        O  0.55567683  0.88493686  0.35720909    -0.74320
O175        O  0.43432484  0.88920495  0.36735403    -0.73710
O176        O  0.53250798  0.85246981  0.38981052    -0.74180
O177        O  0.48319223  0.81529836  0.35415273    -0.74090
O178        O  0.46898342  0.81773349  0.29232281    -0.73880
C179        C  0.54305548  0.85851467  0.24663410     0.77910
C180        C  0.49195081  0.94668095  0.28972798     0.78400
C181        C  0.43750684  0.87038326  0.24249734     0.77360
C182        C  0.43831281  0.87332699  0.39696844     0.77740
C183        C  0.55505710  0.86505137  0.38217533     0.78870
C184        C  0.47109655  0.80469074  0.32434764     0.77920
Zn185      Zn  0.60613414  0.24768327  0.49588351     1.49720
Zn186      Zn  0.59669462  0.24604781  0.40626248     1.49360
Zn187      Zn  0.64517268  0.28175136  0.44009747     1.49110
Zn188      Zn  0.64418380  0.21170348  0.44168259     1.49480
O189        O  0.62450068  0.24706524  0.44673937    -1.83350
O190        O  0.56663248  0.25588180  0.48659485    -0.73980
O191        O  0.59092969  0.28187711  0.38010252    -0.73800
O192        O  0.64100657  0.30703804  0.48994946    -0.73310
O193        O  0.56110845  0.23663500  0.42789062    -0.73990
O194        O  0.61690918  0.27977333  0.02940151    -0.73590
O195        O  0.62814629  0.30646526  0.39704590    -0.74180
O196        O  0.68265280  0.22254033  0.42168363    -0.73570
O197        O  0.60263900  0.21850613  0.36535428    -0.74320
O198        O  0.68266371  0.26931681  0.41865523    -0.73710
O199        O  0.62786943  0.18765447  0.39786483    -0.74180
O200        O  0.63748953  0.18532282  0.48896419    -0.74090
O201        O  0.60551022  0.20971329  0.02059902    -0.73880
C202        C  0.55144015  0.24686270  0.45876719     0.77910
C203        C  0.60542781  0.30372090  0.37777453     0.78400
C204        C  0.62731259  0.30339498  0.02129993     0.77360
C205        C  0.69367628  0.24563316  0.41111365     0.77740
C206        C  0.61278874  0.19439861  0.36857421     0.78870
C207        C  0.61831945  0.18700440  0.01460044     0.77920
Zn208      Zn  0.39123822  0.22085983  0.43001843     1.49720
Zn209      Zn  0.38337806  0.28317078  0.43288295     1.49360
Zn210      Zn  0.34761686  0.24479950  0.38021598     1.49110
Zn211      Zn  0.34347321  0.24661863  0.48035752     1.49480
O212        O  0.36415322  0.24853727  0.43150118    -1.83350
O213        O  0.42568285  0.23727861  0.41411704    -0.73980
O214        O  0.38563232  0.30124047  0.38195119    -0.73800
O215        O  0.35774608  0.20933095  0.35061682    -0.73310
O216        O  0.42235043  0.27569891  0.44945104    -0.73990
O217        O  0.38552361  0.18992531  0.39420677    -0.73590
O218        O  0.35751968  0.27615506  0.34379867    -0.74180
O219        O  0.30151883  0.24485427  0.45642847    -0.73570
O220        O  0.36607023  0.31034480  0.46762078    -0.74320
O221        O  0.30876873  0.24474681  0.39152542    -0.73710
O222        O  0.35613756  0.28247226  0.01579609    -0.74180
O223        O  0.35872373  0.21161564  0.01343364    -0.74090
O224        O  0.39719765  0.20396033  0.48039581    -0.73880
C225        C  0.43672083  0.25678558  0.43377149     0.77910
C226        C  0.37421121  0.29642189  0.34899836     0.78400
C227        C  0.37367395  0.18949629  0.36103443     0.77360
C228        C  0.29257322  0.24438563  0.42029956     0.77740
C229        C  0.36562399  0.30594010  0.00394415     0.78870
C230        C  0.38269014  0.20006687  0.01025409     0.77920
Zn231      Zn  0.46200632  0.14183385  0.17164082     1.49720
Zn232      Zn  0.49401124  0.10650442  0.23217722     1.49360
Zn233      Zn  0.49646557  0.09464300  0.13470788     1.49110
Zn234      Zn  0.52561531  0.14397500  0.17650427     1.49480
O235        O  0.49488972  0.12013189  0.17940446    -1.83350
O236        O  0.44377595  0.15209400  0.22029953    -0.73980
O237        O  0.49371025  0.06585748  0.22615237    -0.73800
O238        O  0.46331087  0.10787470  0.09737340    -0.73310
O239        O  0.45828438  0.11824098  0.25924244    -0.73990
O240        O  0.43376456  0.12009695  0.14214172    -0.73590
O241        O  0.49385885  0.05471019  0.16218984    -0.74180
O242        O  0.55571097  0.12917012  0.14660255    -0.73570
O243        O  0.52832901  0.11881675  0.26496574    -0.74320
O244        O  0.53326086  0.10362805  0.10258610    -0.73710
O245        O  0.54316786  0.15203418  0.22636269    -0.74180
O246        O  0.51602898  0.17842588  0.14969775    -0.74090
O247        O  0.47055232  0.17586648  0.14084919    -0.73880
C248        C  0.44128158  0.13780836  0.25105502     0.77910
C249        C  0.49330231  0.04785730  0.19876118     0.78400
C250        C  0.43989379  0.11839470  0.10661667     0.77360
C251        C  0.55464899  0.11810644  0.11315922     0.77740
C252        C  0.54521918  0.13853403  0.25792200     0.78870
C253        C  0.49357880  0.18807471  0.13565312     0.77920
Zn254      Zn  0.46297731  0.39029925  0.18386436     1.49720
Zn255      Zn  0.53075439  0.39210407  0.18625210     1.49360
Zn256      Zn  0.49917431  0.33702436  0.20462523     1.49110
Zn257      Zn  0.49813783  0.36197296  0.11808997     1.49480
O258        O  0.49758940  0.37059569  0.17383598    -1.83350
O259        O  0.47283329  0.43029874  0.19980172    -0.73980
O260        O  0.54991100  0.37887522  0.23577630    -0.73800
O261        O  0.46427767  0.33239933  0.23365635    -0.73310
O262        O  0.51910478  0.43181736  0.19884517    -0.73990
O263        O  0.44238423  0.37278923  0.22809008    -0.73590
O264        O  0.53096737  0.33723947  0.24365379    -0.74180
O265        O  0.49809803  0.32137697  0.11052316    -0.73570
O266        O  0.55977949  0.38344139  0.14471555    -0.74320
O267        O  0.50073773  0.30372289  0.17037154    -0.73710
O268        O  0.53435825  0.37185862  0.09202202    -0.74180
O269        O  0.46148246  0.37000472  0.09101138    -0.74090
O270        O  0.43433860  0.38332408  0.13899289    -0.73880
C271        C  0.49580041  0.44328603  0.20594127     0.77910
C272        C  0.54867027  0.35577987  0.25352417     0.78400
C273        C  0.44386123  0.34804881  0.24095038     0.77360
C274        C  0.49893102  0.30090718  0.13349987     0.77740
C275        C  0.55786959  0.37435842  0.10958164     0.78870
C276        C  0.43727528  0.37355871  0.10462250     0.77920
Zn277      Zn  0.13759435  0.21473749  0.30951043     1.49720
Zn278      Zn  0.13730785  0.28416349  0.31292510     1.49360
Zn279      Zn  0.10225783  0.25033995  0.25315721     1.49110
Zn280      Zn  0.08819459  0.24806037  0.34274093     1.49480
O281        O  0.11716727  0.24926664  0.30527299    -1.83350
O282        O  0.17721601  0.22559632  0.32374163    -0.73980
O283        O  0.12865152  0.31031068  0.26520648    -0.73800
O284        O  0.09768667  0.21257390  0.22935773    -0.73310
O285        O  0.17666689  0.27222636  0.32969713    -0.73990
O286        O  0.12598438  0.18626852  0.26543132    -0.73590
O287        O  0.12125375  0.27828679  0.21981697    -0.74180
O288        O  0.05280068  0.26082073  0.31886157    -0.73570
O289        O  0.12254640  0.30564295  0.35974364    -0.74320
O290        O  0.06420763  0.26369882  0.25661579    -0.73710
O291        O  0.09507715  0.27439781  0.38666353    -0.74180
O292        O  0.08382344  0.21017197  0.36489554    -0.74090
O293        O  0.12598753  0.19310343  0.35626708    -0.73880
C294        C  0.18866384  0.24860314  0.33446075     0.77910
C295        C  0.12086872  0.30365226  0.23037815     0.78400
C296        C  0.10711833  0.18881624  0.23869622     0.77360
C297        C  0.04699715  0.26671198  0.28355130     0.77740
C298        C  0.10698529  0.29797429  0.38730064     0.78870
C299        C  0.10228251  0.19188361  0.37140421     0.77920
Zn300      Zn  0.83919374  0.24781755  0.25510792     1.49720
Zn301      Zn  0.84933351  0.24858544  0.35185642     1.49360
Zn302      Zn  0.89472764  0.22892502  0.29977944     1.49110
Zn303      Zn  0.87738550  0.29149376  0.29845312     1.49480
O304        O  0.86415957  0.25343132  0.30081613    -1.83350
O305        O  0.79852704  0.24582959  0.28094937    -0.73980
O306        O  0.86060425  0.21250466  0.37730306    -0.73800
O307        O  0.89048833  0.20175069  0.25792187    -0.73310
O308        O  0.80962780  0.24759517  0.34487058    -0.73990
O309        O  0.85120688  0.21028348  0.22571686    -0.73590
O310        O  0.89989887  0.20589525  0.34675088    -0.74180
O311        O  0.91557891  0.29286321  0.27732017    -0.73570
O312        O  0.86068579  0.27919981  0.38937969    -0.74320
O313        O  0.92835053  0.24918145  0.28873044    -0.73710
O314        O  0.88055108  0.30943969  0.35036867    -0.74180
O315        O  0.85333161  0.31369807  0.26333655    -0.74090
O316        O  0.84996434  0.28185601  0.21737513    -0.73880
C317        C  0.79163712  0.24574379  0.31737984     0.77910
C318        C  0.88306036  0.19922898  0.37300098     0.78400
C319        C  0.87322123  0.19552270  0.23092588     0.77360
C320        C  0.93361196  0.27369838  0.27766150     0.77740
C321        C  0.87384265  0.30178379  0.38429063     0.78870
C322        C  0.85581772  0.30699409  0.22776292     0.77920
Zn323      Zn  0.98912902  0.09587172  0.10413791     1.49720
Zn324      Zn  0.03212850  0.13745671  0.07043522     1.49360
Zn325      Zn  0.99392002  0.10843320  0.00868045     1.49110
Zn326      Zn  0.96912293  0.15128154  0.06219111     1.49480
O327        O  0.99540498  0.12213414  0.06160678    -1.83350
O328        O  0.02136283  0.10437481  0.14573696    -0.73980
O329        O  0.05285630  0.14160754  0.02199644    -0.73800
O330        O  0.99424276  0.06872607  0.01273530    -0.73310
O331        O  0.05519163  0.11493649  0.10627799    -0.73990
O332        O  0.98985046  0.05630140  0.07548175    -0.73590
O333        O  0.02720163  0.11943378  0.47768524    -0.74180
O334        O  0.94595827  0.15455674  0.01474054    -0.73570
O335        O  0.02968644  0.17490930  0.09474492    -0.74320
O336        O  0.95917202  0.11917449  0.47836842    -0.73710
O337        O  0.98718277  0.18624065  0.07421324    -0.74180
O338        O  0.94277691  0.14688638  0.10372007    -0.74090
O339        O  0.95176011  0.10666237  0.13276583    -0.73880
C340        C  0.04653236  0.11208858  0.14061402     0.77910
C341        C  0.04902349  0.13293970  0.48735741     0.78400
C342        C  0.99244880  0.05032105  0.03885933     0.77360
C343        C  0.94278584  0.13925658  0.48480509     0.77740
C344        C  0.01017951  0.19234949  0.09069017     0.78870
C345        C  0.93737716  0.12910060  0.12952047     0.77920
Zn346      Zn  0.99346890  0.34451161  0.03659886     1.49720
Zn347      Zn  0.99406578  0.36422646  0.12655510     1.49360
Zn348      Zn  0.02876851  0.39537458  0.06495573     1.49110
Zn349      Zn  0.95920803  0.39612153  0.06365612     1.49480
O350        O  0.99376044  0.37561241  0.07229475    -1.83350
O351        O  0.99936449  0.31048700  0.06608282    -0.73980
O352        O  0.02445750  0.38250961  0.15919241    -0.73800
O353        O  0.05173261  0.37846345  0.02163335    -0.73310
O354        O  0.00272221  0.32455663  0.12789924    -0.73990
O355        O  0.02451821  0.34437475  0.49967131    -0.73590
O356        O  0.05511963  0.38973961  0.11316866    -0.74180
O357        O  0.97094915  0.43522207  0.04621244    -0.73570
O358        O  0.95652866  0.36424189  0.15030745    -0.74320
O359        O  0.01742583  0.43327024  0.04514082    -0.73710
O360        O  0.93052594  0.38757761  0.10741771    -0.74180
O361        O  0.93694675  0.38089728  0.01789920    -0.74090
O362        O  0.95803107  0.34087485  0.50684405    -0.73880
C363        C  0.00367136  0.30582966  0.10205609     0.77910
C364        C  0.04948609  0.38252158  0.14798428     0.78400
C365        C  0.04695233  0.35808342  0.49866914     0.77360
C366        C  0.99452097  0.44564613  0.03714289     0.77740
C367        C  0.93291152  0.37260046  0.13822858     0.78870
C368        C  0.93800726  0.35748001  0.50086138     0.77920
C369        C  0.98969259  0.23231332  0.12201323    -0.11490
C370        C  0.01320119  0.22055193  0.10520601     0.05520
C371        C  0.03633549  0.23719791  0.09665594    -0.06780
C372        C  0.03407980  0.26588833  0.10147115    -0.07520
C373        C  0.00916628  0.27764578  0.11349956    -0.02070
C374        C  0.98714679  0.26094126  0.12568115     0.04750
N375        N  0.96098326  0.27270762  0.13647865     0.67250
H376        H  0.97218928  0.21923348  0.12909744     0.16150
H377        H  0.05060715  0.27925717  0.09156478     0.15860
N378        N  0.06057421  0.22608478  0.07867611     0.74960
O379        O  0.93856477  0.26090335  0.12619606    -0.38490
O380        O  0.96012369  0.29418847  0.15773858    -0.38440
O381        O  0.05820585  0.21094367  0.04855176    -0.39140
O382        O  0.08421434  0.23537361  0.08851711    -0.39210
C383        C  0.89237495  0.15277403  0.14132704    -0.11490
C384        C  0.91498194  0.13731478  0.15677598     0.05520
C385        C  0.91878730  0.13653891  0.19773389    -0.06780
C386        C  0.90159516  0.15278528  0.22139403    -0.07520
C387        C  0.88141389  0.17122337  0.20564762    -0.02070
C388        C  0.87552660  0.16956416  0.16507715     0.04750
N389        N  0.85394440  0.18593368  0.14712091     0.67250
H390        H  0.88890000  0.15319143  0.10995283     0.16150
H391        H  0.90638920  0.15333884  0.25240007     0.15860
N392        N  0.94193997  0.12244584  0.21578179     0.74960
O393        O  0.85734511  0.19647048  0.11383827    -0.38490
O394        O  0.83003406  0.18598767  0.16129491    -0.38440
O395        O  0.96626004  0.12760566  0.20503583    -0.39140
O396        O  0.93865743  0.10928355  0.24718151    -0.39210
C397        C  0.92476544  0.14122068  0.41669013    -0.11490
C398        C  0.92063027  0.14649701  0.45638122     0.05520
C399        C  0.89785048  0.16302914  0.46762223    -0.06780
C400        C  0.88375292  0.17868235  0.43910370    -0.07520
C401        C  0.89092071  0.17661405  0.39982197    -0.02070
C402        C  0.90940747  0.15554177  0.38807204     0.04750
N403        N  0.91296842  0.14898429  0.34744117     0.67250
H404        H  0.94100711  0.12714200  0.40795982     0.16150
H405        H  0.86827554  0.19361471  0.44783573     0.15860
N406        N  0.88943668  0.16458497  0.00769149     0.74960
O407        O  0.93549000  0.13887808  0.33589866    -0.38490
O408        O  0.89241881  0.14984203  0.32398311    -0.38440
O409        O  0.87726529  0.18594001  0.02023128    -0.39140
O410        O  0.89097130  0.14334019  0.02919130    -0.39210
C411        C  0.88757717  0.34773947  0.22056405    -0.11490
C412        C  0.87051395  0.32752469  0.20175647     0.05520
C413        C  0.87130232  0.32587550  0.16036438    -0.06780
C414        C  0.89003512  0.34306955  0.13984060    -0.07520
C415        C  0.90814478  0.36193830  0.15927804    -0.02070
C416        C  0.90640156  0.36452652  0.20027010     0.04750
N417        N  0.92427270  0.38337428  0.22197644     0.67250
H418        H  0.88735665  0.34968702  0.25208480     0.16150
H419        H  0.89151715  0.34067745  0.10846021     0.15860
N420        N  0.85360829  0.30695188  0.13872146     0.74960
O421        O  0.93048740  0.37867817  0.25738105    -0.38490
O422        O  0.93245494  0.40571683  0.20674799    -0.38440
O423        O  0.82891763  0.30309567  0.14886232    -0.39140
O424        O  0.86136023  0.29686387  0.10665742    -0.39210
C425        C  0.89267560  0.34611824  0.41118125    -0.11490
C426        C  0.88378784  0.31867987  0.41804094     0.05520
C427        C  0.88846242  0.30697924  0.45544201    -0.06780
C428        C  0.90376245  0.32194682  0.48353163    -0.07520
C429        C  0.91519206  0.34798044  0.47505351    -0.02070
C430        C  0.90848209  0.36099373  0.43917587     0.04750
N431        N  0.91919972  0.38798684  0.42935489     0.67250
H432        H  0.88852849  0.35555360  0.38295819     0.16150
H433        H  0.90890916  0.31202712  0.51116361     0.15860
N434        N  0.88076335  0.27893393  0.46426184     0.74960
O435        O  0.92455032  0.39364193  0.39432021    -0.38490
O436        O  0.91978623  0.40735349  0.45434837    -0.38440
O437        O  0.89310196  0.25903759  0.44797515    -0.39140
O438        O  0.86687201  0.27414736  0.49431235    -0.39210
C439        C  0.06131485  0.33812570  0.17666338    -0.11490
C440        C  0.06994361  0.36546538  0.17100770     0.05520
C441        C  0.09768753  0.37254643  0.18182514    -0.06780
C442        C  0.11461089  0.35218514  0.20113593    -0.07520
C443        C  0.10571720  0.32427246  0.20491549    -0.02070
C444        C  0.07918133  0.31720610  0.18932773     0.04750
N445        N  0.06977090  0.28896822  0.18475164     0.67250
H446        H  0.04078201  0.33230718  0.16817859     0.16150
H447        H  0.13487817  0.35796652  0.21269486     0.15860
N448        N  0.10879455  0.39981904  0.17453259     0.74960
O449        O  0.04442945  0.28345694  0.18895861    -0.38490
O450        O  0.08416851  0.27202683  0.16566431    -0.38440
O451        O  0.09299196  0.42018246  0.16764817    -0.38660
O452        O  0.13467783  0.40374187  0.17514868    -0.39210
C453        C  0.09081856  0.34399904  0.40999775    -0.11490
C454        C  0.10026723  0.31718238  0.41949498     0.05520
C455        C  0.09666257  0.30695276  0.45765163    -0.06780
C456        C  0.08063153  0.32228044  0.48359940    -0.07520
C457        C  0.06860539  0.34771085  0.47279459    -0.02070
C458        C  0.07478778  0.35964675  0.43615936     0.04750
N459        N  0.06398501  0.38635006  0.42392502     0.67250
H460        H  0.09376816  0.35163391  0.38064299     0.16150
H461        H  0.07644189  0.31373973  0.51214817     0.15860
N462        N  0.10821661  0.28066603  0.46983247     0.74960
O463        O  0.07227778  0.39743616  0.39289896    -0.38490
O464        O  0.04647314  0.39929021  0.44385981    -0.38440
O465        O  0.13059821  0.27206849  0.45574024    -0.39140
O466        O  0.09753682  0.26717446  0.49728354    -0.39210
C467        C  0.06243099  0.13509960  0.41786962    -0.11490
C468        C  0.06925036  0.14053974  0.45730988     0.05520
C469        C  0.09302463  0.15692548  0.46656862    -0.06780
C470        C  0.10545071  0.17199174  0.43681199    -0.07520
C471        C  0.09588354  0.16941702  0.39817595    -0.02070
C472        C  0.07604970  0.14894942  0.38787425     0.04750
N473        N  0.06921089  0.14261889  0.34755477     0.67250
H474        H  0.04548168  0.12111777  0.41044776     0.16150
H475        H  0.12173122  0.18683766  0.44404159     0.15860
N476        N  0.10423582  0.15907361  0.00570055     0.74960
O477        O  0.04798626  0.12829178  0.33881581    -0.38490
O478        O  0.08631345  0.14779277  0.32116586    -0.38440
O479        O  0.10804894  0.13739823  0.02579987    -0.39140
O480        O  0.11438006  0.18181657  0.01790378    -0.39210
C481        C  0.10730599  0.14814529  0.19258976    -0.11490
C482        C  0.09324341  0.16406577  0.22024107     0.05520
C483        C  0.06483725  0.15770091  0.22715473    -0.06780
C484        C  0.05120488  0.13731418  0.20392600    -0.07520
C485        C  0.06442438  0.12350688  0.17342353    -0.02070
C486        C  0.09340421  0.12783032  0.16930773     0.04750
N487        N  0.10879673  0.11233765  0.14100660     0.67250
H488        H  0.12905211  0.15235309  0.18804588     0.16150
H489        H  0.02916425  0.13416757  0.20733064     0.15860
N490        N  0.04897922  0.17167339  0.25677636     0.74960
O491        O  0.13056614  0.12240625  0.12689132    -0.38490
O492        O  0.10230252  0.08747625  0.13297905    -0.38440
O493        O  0.05491576  0.19591975  0.26843128    -0.39140
O494        O  0.02762353  0.16016655  0.27002061    -0.39210
C495        C  0.97678417  0.29939940  0.28745758    -0.11490
C496        C  0.96182591  0.27919407  0.26621943     0.05520
C497        C  0.97567861  0.25909252  0.24370517    -0.06780
C498        C  0.00439759  0.25754351  0.24720494    -0.07520
C499        C  0.01903553  0.27516527  0.27288559    -0.02070
C500        C  0.00566757  0.29752959  0.29146764     0.04750
N501        N  0.02076627  0.31747625  0.31541914     0.67250
H502        H  0.96570726  0.31485764  0.30409056     0.16150
H503        H  0.01522998  0.24098472  0.23235712     0.15860
N504        N  0.96074124  0.23856505  0.22052624     0.74960
O505        O  0.00812938  0.33291031  0.33902137    -0.38490
O506        O  0.04630873  0.32161466  0.31064702    -0.38440
O507        O  0.93658994  0.24344955  0.20738535    -0.39140
O508        O  0.97194150  0.21566146  0.21212698    -0.39210
C509        C  0.46952328  0.23079404  0.11593589    -0.11490
C510        C  0.49415547  0.21545801  0.11687496     0.05520
C511        C  0.51963368  0.22898497  0.10961956    -0.06780
C512        C  0.52054070  0.25799581  0.11154782    -0.07520
C513        C  0.49632359  0.27308745  0.11746470    -0.02070
C514        C  0.47021626  0.25980629  0.11579595     0.04750
N515        N  0.44462159  0.27522865  0.11697718     0.67250
H516        H  0.44983651  0.22026555  0.11898861     0.16150
H517        H  0.54027167  0.26877377  0.11073927     0.15860
N518        N  0.54463761  0.21363743  0.10256410     0.74960
O519        O  0.44349040  0.30001795  0.10508472    -0.38490
O520        O  0.42233203  0.26320352  0.12574865    -0.38440
O521        O  0.54358842  0.19130454  0.08303786    -0.39140
O522        O  0.56803187  0.22392058  0.11159074    -0.39210
C523        C  0.25722849  0.22297147  0.37773114    -0.11490
C524        C  0.26292735  0.24255208  0.40770479     0.05520
C525        C  0.24347245  0.26402943  0.41396066    -0.06780
C526        C  0.21974927  0.26573798  0.38900570    -0.07520
C527        C  0.21538622  0.24733930  0.35716971    -0.02070
C528        C  0.23455357  0.22563825  0.35164496     0.04750
N529        N  0.23257104  0.20742656  0.31818910     0.67250
H530        H  0.27237025  0.20691476  0.37200267     0.16150
H531        H  0.20465209  0.28189601  0.39420133     0.15860
N532        N  0.24743241  0.28455457  0.44437895     0.74960
O533        O  0.24138581  0.18277444  0.32050485    -0.38490
O534        O  0.22598109  0.21705089  0.28498763    -0.38440
O535        O  0.27133105  0.29330636  0.45384299    -0.39140
O536        O  0.22669069  0.29565536  0.45992153    -0.39210
C537        C  0.37285626  0.33150731  0.06972947    -0.11490
C538        C  0.37957960  0.32740531  0.03030381     0.05520
C539        C  0.40202175  0.34318921  0.01581155    -0.06780
C540        C  0.41751997  0.36096503  0.04011255    -0.07520
C541        C  0.41303415  0.36302006  0.08012480    -0.02070
C542        C  0.38914763  0.34918366  0.09484520     0.04750
N543        N  0.38105319  0.35223729  0.13473969     0.67250
H544        H  0.35555820  0.32014950  0.08150325     0.16150
H545        H  0.43531401  0.37127077  0.02781341     0.15860
N546        N  0.41311567  0.33768344  0.97835561     0.74960
O547        O  0.35575090  0.35511718  0.14237047    -0.38490
O548        O  0.39806729  0.34752191  0.16238526    -0.38440
O549        O  0.40239068  0.35173009  0.44876450    -0.39140
O550        O  0.43645161  0.32613288  0.97714206    -0.39210
C551        C  0.39266619  0.29756541  0.28340914    -0.11490
C552        C  0.38369688  0.31269857  0.31568455     0.05520
C553        C  0.39099824  0.34110945  0.31979768    -0.06780
C554        C  0.40958984  0.35276386  0.29341417    -0.07520
C555        C  0.42101008  0.33658054  0.26368570    -0.02070
C556        C  0.41146213  0.30897293  0.25742330     0.04750
N557        N  0.42117930  0.29194095  0.22582053     0.67250
H558        H  0.38676770  0.27589586  0.28021587     0.16150
H559        H  0.41627460  0.37414848  0.29721851     0.15860
N560        N  0.38046422  0.35791416  0.35111181     0.74960
O561        O  0.42233514  0.26584112  0.22940449    -0.38490
O562        O  0.42580969  0.30245647  0.19290741    -0.38440
O563        O  0.35723423  0.35249046  0.36555695    -0.39140
O564        O  0.39317605  0.37963841  0.36219957    -0.39210
C565        C  0.43837591  0.15771235  0.06159635    -0.11490
C566        C  0.42359618  0.13605047  0.07865678     0.05520
C567        C  0.39409150  0.13723153  0.07734405    -0.06780
C568        C  0.38055846  0.15920754  0.05682848    -0.07520
C569        C  0.39568217  0.18083292  0.03974060    -0.02070
C570        C  0.42505525  0.18066644  0.04439627     0.04750
N571        N  0.44170076  0.20416270  0.03315616     0.67250
H572        H  0.46076450  0.15798040  0.06486583     0.16150
H573        H  0.35821220  0.15897856  0.05316499     0.15860
N574        N  0.37762752  0.11622941  0.09582836     0.74960
O575        O  0.43211138  0.22853131  0.03514264    -0.38490
O576        O  0.46727407  0.20121119  0.52816355    -0.38440
O577        O  0.38711440  0.09210189  0.10149667    -0.39140
O578        O  0.35282422  0.12121133  0.10445835    -0.39210
C579        C  0.41989141  0.13625475  0.31664787    -0.11490
C580        C  0.41833415  0.14472768  0.27754432     0.05520
C581        C  0.39560165  0.16140464  0.26494319    -0.06780
C582        C  0.37842024  0.17335966  0.29282420    -0.07520
C583        C  0.38252754  0.16800941  0.33272901    -0.02070
C584        C  0.40161786  0.14696288  0.34422525     0.04750
N585        N  0.40347789  0.13722783  0.38390743     0.67250
H586        H  0.43600648  0.12198736  0.32611225     0.16150
H587        H  0.36289610  0.18827800  0.28338481     0.15860
N588        N  0.38991597  0.16675682  0.22423933     0.74960
O589        O  0.38173592  0.13376331  0.40315172    -0.38490
O590        O  0.42639769  0.12926753  0.39840157    -0.38440
O591        O  0.38958507  0.14691352  0.19994659    -0.39140
O592        O  0.38126524  0.19032577  0.21343123    -0.39210
C593        C  0.76038233  0.22255425  0.36259512    -0.11490
C594        C  0.76285880  0.24182683  0.33179588     0.05520
C595        C  0.74164250  0.26179258  0.32648933    -0.06780
C596        C  0.71988154  0.26297363  0.35359114    -0.07520
C597        C  0.71858247  0.24477673  0.38583044    -0.02070
C598        C  0.73919491  0.22416349  0.39008218     0.04750
N599        N  0.74032202  0.20619358  0.42364049     0.67250
H600        H  0.77689478  0.20764346  0.36760254     0.16150
H601        H  0.70348167  0.27805548  0.34915968     0.15860
N602        N  0.74202750  0.28121888  0.29461379     0.74960
O603        O  0.75096318  0.18231241  0.42109083    -0.38490
O604        O  0.73451869  0.21552047  0.45701283    -0.38440
O605        O  0.75201913  0.27425736  0.26226399    -0.39140
O606        O  0.72919824  0.30399851  0.29692787    -0.39210
C607        C  0.61545240  0.15972670  0.07596221    -0.11490
C608        C  0.60865911  0.16193144  0.03619505     0.05520
C609        C  0.58758958  0.14416810  0.02022835    -0.06780
C610        C  0.57197042  0.12714644  0.04540755    -0.07520
C611        C  0.57727186  0.12670054  0.08593398    -0.02070
C612        C  0.60085915  0.14177805  0.10062765     0.04750
N613        N  0.60930574  0.14043711  0.14112937     0.67250
H614        H  0.63165025  0.17295093  0.08830808     0.16150
H615        H  0.55436970  0.11560866  0.03362080     0.15860
N616        N  0.58084660  0.14439915  0.47903274     0.74960
O617        O  0.61089325  0.11724616  0.15817922    -0.38490
O618        O  0.61714994  0.16213547  0.15916439    -0.38440
O619        O  0.59921502  0.14957320  0.45445553    -0.39140
O620        O  0.55734236  0.13615955  0.46677120    -0.39210
C621        C  0.58571057  0.16854579  0.27315732    -0.11490
C622        C  0.56797759  0.14708349  0.28550601     0.05520
C623        C  0.57185058  0.13633089  0.32364924    -0.06780
C624        C  0.58989780  0.15029941  0.34997840    -0.07520
C625        C  0.60457583  0.17403644  0.33853498    -0.02070
C626        C  0.60394227  0.18211325  0.29907609     0.04750
N627        N  0.62037919  0.20510426  0.28558556     0.67250
H628        H  0.58464956  0.17580951  0.24325563     0.16150
H629        H  0.59099805  0.14373312  0.38014949     0.15860
N630        N  0.55751745  0.11191998  0.33636118     0.74960
O631        O  0.64336046  0.21091057  0.30205869    -0.38490
O632        O  0.61288602  0.21859450  0.25558739    -0.38440
O633        O  0.55869497  0.08983166  0.31640477    -0.39140
O634        O  0.54853386  0.11074715  0.37067419    -0.39210
C635        C  0.61300090  0.32084999  0.08621435    -0.11490
C636        C  0.61908485  0.32719764  0.04723797     0.05520
C637        C  0.60940905  0.35306040  0.03219143    -0.06780
C638        C  0.59105838  0.36946064  0.05424799    -0.07520
C639        C  0.58248639  0.36119090  0.09138182    -0.02070
C640        C  0.59464876  0.33702311  0.10820774     0.04750
N641        N  0.58669447  0.32679095  0.14587401     0.67250
H642        H  0.62028088  0.30133320  0.09835591     0.16150
H643        H  0.58213228  0.38799646  0.04125679     0.15860
N644        N  0.61657836  0.36252115  0.49412346     0.74960
O645        O  0.60409769  0.31382007  0.16696345    -0.38490
O646        O  0.56155468  0.32636570  0.15523315    -0.38440
O647        O  0.61016388  0.34822054  0.46430312    -0.39140
O648        O  0.62410617  0.38744120  0.48967069    -0.39210
C649        C  0.60884816  0.33093394  0.31711837    -0.11490
C650        C  0.59478272  0.32569152  0.35173248     0.05520
C651        C  0.56751381  0.33587534  0.35601259    -0.06780
C652        C  0.55395000  0.34786758  0.32361695    -0.07520
C653        C  0.56690961  0.35043594  0.28773692    -0.02070
C654        C  0.59531099  0.34346276  0.28477771     0.04750
N655        N  0.61008580  0.34704171  0.24896601     0.67250
H656        H  0.62981079  0.32327594  0.31435503     0.16150
H657        H  0.53242507  0.35398860  0.32558986     0.15860
N658        N  0.55280089  0.33311865  0.39208353     0.74960
O659        O  0.63192862  0.33339480  0.24306172    -0.38490
O660        O  0.60329697  0.36589008  0.22509095    -0.38440
O661        O  0.56520725  0.32642089  0.42348353    -0.39140
O662        O  0.52770388  0.34021081  0.39353620    -0.39210
C663        C  0.51111957  0.27597372  0.45229197    -0.11490
C664        C  0.52195760  0.24964092  0.46048425     0.05520
C665        C  0.50507914  0.22582737  0.45948218    -0.06780
C666        C  0.47717277  0.22906345  0.44991810    -0.07520
C667        C  0.46626845  0.25533620  0.44105507    -0.02070
C668        C  0.48340674  0.27900484  0.44095989     0.04750
N669        N  0.47389956  0.30526722  0.42592934     0.67250
H670        H  0.52490695  0.29373382  0.45105691     0.16150
H671        H  0.46372908  0.21096572  0.44976960     0.15860
N672        N  0.51601166  0.19848739  0.46741869     0.74960
O673        O  0.48461437  0.32762746  0.43854494    -0.38490
O674        O  0.45689006  0.30619116  0.39736090    -0.38440
O675        O  0.53660506  0.19537164  0.49038712    -0.39140
O676        O  0.50381565  0.17715068  0.45386941    -0.39210
C677        C  0.51469871  0.97874653  0.24232922    -0.11490
C678        C  0.49175669  0.97289385  0.26587625     0.05520
C679        C  0.46808050  0.99009898  0.26186223    -0.06780
C680        C  0.46806248  0.01223114  0.23502676    -0.07520
C681        C  0.49127695  0.01862990  0.21255742    -0.02070
C682        C  0.51489786  0.00134645  0.21599087     0.04750
N683        N  0.53952557  0.00691570  0.19427247     0.67250
H684        H  0.53266447  0.96532072  0.24405113     0.16150
H685        H  0.45044599  0.02618652  0.23410053     0.15860
N686        N  0.44460498  0.98675401  0.28649829     0.74960
O687        O  0.56277802  0.99806446  0.20637764    -0.38490
O688        O  0.53792550  0.01850796  0.16128542    -0.38440
O689        O  0.44818627  0.98401644  0.32294196    -0.39140
O690        O  0.42044405  0.99104602  0.27296645    -0.39210
C691        C  0.51866228  0.50994271  0.25961159    -0.11490
C692        C  0.49358915  0.51947129  0.27510264     0.05520
C693        C  0.46905443  0.50432795  0.26558880    -0.06780
C694        C  0.47023123  0.48086798  0.24093030    -0.07520
C695        C  0.49534009  0.47127894  0.22562495    -0.02070
C696        C  0.51983280  0.48654106  0.23490344     0.04750
N697        N  0.54607031  0.47914909  0.21898304     0.67250
H698        H  0.53766209  0.52140626  0.26545379     0.16150
H699        H  0.45126033  0.46934816  0.23510973     0.15860
N700        N  0.44278547  0.51185586  0.28124659     0.74960
O701        O  0.54860981  0.47755538  0.18240904    -0.38490
O702        O  0.56755260  0.47898353  0.24073839    -0.38440
O703        O  0.42153628  0.51270975  0.25907628    -0.39140
O704        O  0.43986748  0.51264670  0.31779842    -0.39210
C705        C  0.45837075  0.76158454  0.28997461    -0.11490
C706        C  0.46150224  0.77580012  0.32567676     0.05520
C707        C  0.46089413  0.76086156  0.36112551    -0.06780
C708        C  0.46198929  0.73192943  0.35963414    -0.07520
C709        C  0.46348418  0.71790548  0.32376312    -0.02070
C710        C  0.46014223  0.73277353  0.28844730     0.04750
N711        N  0.46217832  0.71970462  0.25084172     0.67250
H712        H  0.45807286  0.77285373  0.26260484     0.16150
H713        H  0.46295225  0.72035056  0.38674142     0.15860
N714        N  0.46034305  0.77456666  0.39854794     0.74960
O715        O  0.44431887  0.72505380  0.22443442    -0.38490
O716        O  0.48472297  0.70856986  0.24134263    -0.38440
O717        O  0.44487516  0.79534828  0.40352187    -0.39140
O718        O  0.47268990  0.76401100  0.42780865    -0.39210
C719        C  0.38027976  0.82458868  0.42440003    -0.11490
C720        C  0.38022336  0.82701977  0.46528757     0.05520
C721        C  0.39613897  0.84881887  0.48299971    -0.06780
C722        C  0.41299163  0.86596773  0.45970894    -0.07520
C723        C  0.41416327  0.86237683  0.41902057    -0.02070
C724        C  0.39658729  0.84203695  0.40114616     0.04750
N725        N  0.39703452  0.83694033  0.35974110     0.67250
H726        H  0.36846833  0.80795285  0.41046183     0.16150
H727        H  0.42685081  0.88084762  0.47385392     0.15860
N728        N  0.39766480  0.85232055  0.02470087     0.74960
O729        O  0.39643586  0.81232624  0.34673344    -0.38490
O730        O  0.39388238  0.85681478  0.33612846    -0.38440
O731        O  0.40255232  0.83176544  0.04657718    -0.39140
O732        O  0.39855942  0.87648650  0.03924288    -0.39210
C733        C  0.40064997  0.83626438  0.22966510    -0.11490
C734        C  0.41589228  0.85893812  0.21584274     0.05520
C735        C  0.41475051  0.86538299  0.17557215    -0.06780
C736        C  0.40000877  0.84751534  0.14984207    -0.07520
C737        C  0.38708120  0.82333871  0.16333094    -0.02070
C738        C  0.38648437  0.81808633  0.20388728     0.04750
N739        N  0.37294273  0.79377774  0.21906201     0.67250
H740        H  0.40169261  0.83140287  0.26055702     0.16150
H741        H  0.40016438  0.85144434  0.11874595     0.15860
N742        N  0.42912090  0.88918254  0.16033647     0.74960
O743        O  0.38021336  0.78405262  0.25194155    -0.38490
O744        O  0.35237346  0.78308986  0.20111130    -0.38440
O745        O  0.43455328  0.90995373  0.18189455    -0.39140
O746        O  0.43445650  0.89053227  0.12443913    -0.39210
C747        C  0.39864282  0.64647003  0.48853085    -0.11490
C748        C  0.37756483  0.66148792  0.46879000     0.05520
C749        C  0.37453144  0.65811075  0.42779280    -0.06780
C750        C  0.39368015  0.64142787  0.40769110    -0.07520
C751        C  0.41635354  0.62865853  0.42700119    -0.02070
C752        C  0.41833371  0.63048273  0.46827169     0.04750
N753        N  0.44055846  0.61711237  0.48982738     0.67250
H754        H  0.40113775  0.64903154  0.01987514     0.16150
H755        H  0.39212194  0.64014212  0.37609204     0.15860
N756        N  0.35291144  0.67224052  0.40603105     0.74960
O757        O  0.44707438  0.62508271  0.52403419    -0.38490
O758        O  0.45233787  0.59590837  0.47611107    -0.38440
O759        O  0.33023408  0.67801191  0.42181501    -0.39140
O760        O  0.35553184  0.67711371  0.37006995    -0.39210
C761        C  0.40014526  0.64601868  0.15558823    -0.11490
C762        C  0.38943520  0.67127267  0.16934129     0.05520
C763        C  0.39061539  0.67721948  0.20988147    -0.06780
C764        C  0.40386026  0.65822900  0.23517386    -0.07520
C765        C  0.41666815  0.63414725  0.22099972    -0.02070
C766        C  0.41412684  0.62742329  0.18083011     0.04750
N767        N  0.42619597  0.60245115  0.16518134     0.67250
H768        H  0.39904723  0.64161830  0.12450263     0.16150
H769        H  0.40605821  0.66330102  0.26598496     0.15860
N770        N  0.37952599  0.70264147  0.22566545     0.74960
O771        O  0.43079393  0.60042427  0.12910317    -0.38490
O772        O  0.43030758  0.58149820  0.18663883    -0.38440
O773        O  0.36020709  0.71539527  0.20799914    -0.39140
O774        O  0.38749171  0.71133514  0.25895104    -0.39210
C775        C  0.61451685  0.64346799  0.45937260    -0.11490
C776        C  0.62179188  0.67090953  0.44885022     0.05520
C777        C  0.61187955  0.68089444  0.41230570    -0.06780
C778        C  0.59188323  0.66525666  0.39088210    -0.07520
C779        C  0.58201812  0.63945548  0.40410366    -0.02070
C780        C  0.59465126  0.62762129  0.43778667     0.04750
N781        N  0.58623748  0.60081087  0.45217141     0.67250
H782        H  0.62238301  0.63544018  0.48699093     0.16150
H783        H  0.58276312  0.67402442  0.36445541     0.15860
N784        N  0.61996779  0.70775277  0.39815564     0.74960
O785        O  0.59126828  0.59417094  0.48728074    -0.38490
O786        O  0.57564015  0.58282087  0.42937301    -0.38440
O787        O  0.64510963  0.71502634  0.39991552    -0.39140
O788        O  0.60295090  0.72239823  0.37871623    -0.39210
C789        C  0.60016276  0.65550086  0.17984648    -0.11490
C790        C  0.59386434  0.68323221  0.17075960     0.05520
C791        C  0.57302494  0.69724136  0.19120882    -0.06780
C792        C  0.55881963  0.68314029  0.22004604    -0.07520
C793        C  0.56376375  0.65489528  0.22815533    -0.02070
C794        C  0.58572113  0.64126110  0.20904962     0.04750
N795        N  0.59355260  0.61328550  0.21849923     0.67250
H796        H  0.61640781  0.64497168  0.16426480     0.16150
H797        H  0.54247015  0.69415120  0.23473017     0.15860
N798        N  0.56447494  0.72505979  0.18110649     0.74960
O799        O  0.59913322  0.59638724  0.19148455    -0.38490
O800        O  0.60060730  0.60733609  0.25320738    -0.38440
O801        O  0.56062103  0.73175216  0.14575161    -0.39140
O802        O  0.55666705  0.74156514  0.20742379    -0.39210
C803        C  0.61249926  0.81409027  0.41086696    -0.11490
C804        C  0.61957370  0.82358359  0.44861307     0.05520
C805        C  0.61031269  0.85044331  0.45991063    -0.06780
C806        C  0.59097616  0.86487160  0.43588637    -0.07520
C807        C  0.58112017  0.85365630  0.40034201    -0.02070
C808        C  0.59331926  0.82854993  0.38643796     0.04750
N809        N  0.58569537  0.81643186  0.34889234     0.67250
H810        H  0.61932525  0.79355994  0.40222783     0.16150
H811        H  0.58221659  0.88423482  0.44608550     0.15860
N812        N  0.61871178  0.86217961  0.99719273     0.74960
O813        O  0.60078101  0.79794007  0.33404649    -0.38490
O814        O  0.56407125  0.82374505  0.33026831    -0.38440
O815        O  0.64115329  0.85479097  0.01372159    -0.39140
O816        O  0.60469847  0.88127791  0.01261622    -0.39210
C817        C  0.54821107  0.84609750  0.17879737    -0.11490
C818        C  0.56153030  0.85069413  0.21497307     0.05520
C819        C  0.58938893  0.84210129  0.22091461    -0.06780
C820        C  0.60216763  0.82709167  0.19077533    -0.07520
C821        C  0.58777821  0.82036384  0.15576309    -0.02070
C822        C  0.56052383  0.83053598  0.14965848     0.04750
N823        N  0.54371421  0.82275778  0.11622793     0.67250
H824        H  0.52678397  0.85240720  0.17449292     0.16150
H825        H  0.62320262  0.81974245  0.19513539     0.15860
N826        N  0.60447601  0.84693583  0.25726439     0.74960
O827        O  0.53638118  0.79769928  0.11173286    -0.38490
O828        O  0.53139182  0.84132813  0.09656595    -0.38440
O829        O  0.59779274  0.86638258  0.28000194    -0.39140
O830        O  0.62634724  0.83348554  0.26502958    -0.39210
C831        C  0.50764176  0.76289514  0.01682744    -0.11490
C832        C  0.52177419  0.73739015  0.01910346     0.05520
C833        C  0.50670380  0.71217432  0.01977188    -0.06780
C834        C  0.47807693  0.71329128  0.02343240    -0.07520
C835        C  0.46478859  0.73895363  0.02554761    -0.02070
C836        C  0.47917167  0.76401320  0.02058152     0.04750
N837        N  0.46544174  0.79059908  0.02137432     0.67250
H838        H  0.51886690  0.78235073  0.01481119     0.16150
H839        H  0.46628737  0.69420239  0.02620503     0.15860
N840        N  0.52008645  0.68559027  0.01841187     0.74960
O841        O  0.47791301  0.81175894  0.03498436    -0.38490
O842        O  0.44171948  0.79355214  0.00566669    -0.38440
O843        O  0.51324723  0.66658963  0.04166470    -0.39140
O844        O  0.53648169  0.68007585  0.99123713    -0.39210
C845        C  0.01556429  0.99167168  0.47533270    -0.11490
C846        C  0.99028460  0.97848386  0.46638174     0.05520
C847        C  0.96621578  0.98708555  0.48613320    -0.06780
C848        C  0.96820027  0.00865745  0.01414476    -0.07520
C849        C  0.99351561  0.02177462  0.02317024    -0.02070
C850        C  0.01758256  0.01311814  0.00346383     0.04750
N851        N  0.04411687  0.02607703  0.01143696     0.67250
H852        H  0.03424788  0.98393614  0.46211637     0.16150
H853        H  0.94953248  0.01640365  0.02738029     0.15860
N854        N  0.93975661  0.97391705  0.47840422     0.74960
O855        O  0.06317828  0.02448375  0.98686331    -0.38490
O856        O  0.04934154  0.03746046  0.04410807    -0.38440
O857        O  0.93465582  0.96204299  0.44604520    -0.39140
O858        O  0.92065399  0.97571979  0.50288534    -0.39210
C859        C  0.02065176  0.50641456  0.47649793    -0.11490
C860        C  0.99640654  0.51489631  0.45661725     0.05520
C861        C  0.97133005  0.50066419  0.46358234    -0.06780
C862        C  0.97121436  0.47887304  0.99097978    -0.07520
C863        C  0.99528164  0.47120087  0.01238777    -0.02070
C864        C  0.02036921  0.48541981  0.00479170     0.04750
N865        N  0.04531261  0.48033391  0.02730944     0.67250
H866        H  0.03951986  0.51835013  0.47299185     0.16150
H867        H  0.95207040  0.46765815  0.99542152     0.15860
N868        N  0.94570329  0.50886832  0.44447293     0.74960
O869        O  0.06845988  0.48043227  0.01085705    -0.38490
O870        O  0.04474259  0.48053424  0.06417834    -0.38440
O871        O  0.94578556  0.52093333  0.41178678    -0.39140
O872        O  0.92273045  0.50246984  0.45895770    -0.39210
C873        C  0.97435034  0.73133361  0.43658653    -0.11490
C874        C  0.99629432  0.71815156  0.41829195     0.05520
C875        C  0.01969598  0.73314006  0.40631318    -0.06780
C876        C  0.02057239  0.76158969  0.41371278    -0.07520
C877        C  0.99878019  0.77493712  0.43268716    -0.02070
C878        C  0.97560047  0.75952066  0.44501196     0.04750
N879        N  0.95383791  0.77171530  0.46734449     0.67250
H880        H  0.95702880  0.71921553  0.44695436     0.16150
H881        H  0.03797142  0.77351621  0.40333361     0.15860
N882        N  0.04224579  0.72004272  0.38625897     0.74960
O883        O  0.92892238  0.76491865  0.46037687    -0.38490
O884        O  0.95971810  0.78576630  0.49768239    -0.38440
O885        O  0.03828925  0.69819043  0.36631258    -0.39140
O886        O  0.06580350  0.73150481  0.38584011    -0.39210
C887        C  0.74189339  0.73444038  0.09070886    -0.11490
C888        C  0.72120044  0.75131568  0.10575459     0.05520
C889        C  0.72607197  0.76477863  0.14258178    -0.06780
C890        C  0.75130213  0.76080314  0.16317813    -0.07520
C891        C  0.77210992  0.74422740  0.14780217    -0.02070
C892        C  0.76702188  0.73035637  0.11136249     0.04750
N893        N  0.78718412  0.71190456  0.09496602     0.67250
H894        H  0.73796418  0.72324068  0.06359140     0.16150
H895        H  0.75537872  0.77222697  0.19007182     0.15860
N896        N  0.70602405  0.78332218  0.15895545     0.74960
O897        O  0.80099348  0.69564975  0.11672596    -0.38490
O898        O  0.78961573  0.71015007  0.05837440    -0.38440
O899        O  0.70291626  0.78428847  0.19547420    -0.39140
O900        O  0.69365050  0.80090147  0.13757387    -0.39210
C901        C  0.89892669  0.63057584  0.31421861    -0.11490
C902        C  0.92734001  0.63564584  0.32232204     0.05520
C903        C  0.93826640  0.66201581  0.31281017    -0.06780
C904        C  0.92082299  0.68224543  0.29639821    -0.07520
C905        C  0.89296461  0.67699691  0.28603094    -0.02070
C906        C  0.88168665  0.65053896  0.29494915     0.04750
N907        N  0.85335317  0.64346547  0.28490783     0.67250
H908        H  0.89008294  0.61106172  0.32360083     0.16150
H909        H  0.92971319  0.70223542  0.28916624     0.15860
N910        N  0.96686218  0.66918687  0.32075178     0.74960
O911        O  0.84540484  0.61843859  0.28557275    -0.38490
O912        O  0.83568003  0.66214271  0.27761792    -0.38440
O913        O  0.98583450  0.65182059  0.31454101    -0.39140
O914        O  0.97351726  0.69410267  0.32818561    -0.39210
C915        C  0.88626918  0.67728257  0.04352354    -0.11490
C916        C  0.89331786  0.67432109  0.08314428     0.05520
C917        C  0.90914798  0.65099934  0.09548005    -0.06780
C918        C  0.92208014  0.63461080  0.06728063    -0.07520
C919        C  0.91827793  0.64025939  0.02743423    -0.02070
C920        C  0.89799351  0.65997492  0.01543536     0.04750
N921        N  0.89011985  0.66345886  0.47491763     0.67250
H922        H  0.87281320  0.69410823  0.03416891     0.16150
H923        H  0.93645119  0.61853574  0.07653873     0.15860
N924        N  0.91273844  0.64418605  0.13622219     0.74960
O925        O  0.88788624  0.64253242  0.45264241    -0.38490
O926        O  0.88257927  0.68694613  0.46225056    -0.38440
O927        O  0.89286691  0.64715308  0.15923685    -0.39140
O928        O  0.93435757  0.63187212  0.14826363    -0.39210
C929        C  0.90046057  0.84734277  0.26084132    -0.11490
C930        C  0.88089153  0.82957339  0.27854279     0.05520
C931        C  0.87854953  0.83132996  0.31944179    -0.06780
C932        C  0.89693178  0.84847262  0.34133312    -0.07520
C933        C  0.91859421  0.86373438  0.32406840    -0.02070
C934        C  0.91919998  0.86443498  0.28275925     0.04750
N935        N  0.93897881  0.88127032  0.26251600     0.67250
H936        H  0.90206471  0.84703438  0.22933834     0.16150
H937        H  0.89565735  0.84806534  0.37292435     0.15860
N938        N  0.85804924  0.81571808  0.33958232     0.74960
O939        O  0.94438567  0.87605488  0.22732397    -0.38490
O940        O  0.94755915  0.90387927  0.27723138    -0.38440
O941        O  0.86062084  0.78972460  0.34288117    -0.39140
O942        O  0.84133507  0.82831613  0.36124174    -0.39210
C943        C  0.90190003  0.83540370  0.00950583    -0.11490
C944        C  0.91732750  0.85868000  0.02234026     0.05520
C945        C  0.91755804  0.86612394  0.06224151    -0.06780
C946        C  0.90568572  0.84788736  0.08884184    -0.07520
C947        C  0.89367610  0.82252730  0.07650212    -0.02070
C948        C  0.89072301  0.81681153  0.03613279     0.04750
N949        N  0.87931107  0.79109256  0.02161336     0.67250
H950        H  0.90152706  0.82954292  0.47888633     0.16150
H951        H  0.90664248  0.85316872  0.11965855     0.15860
N952        N  0.93047912  0.89142831  0.07618916     0.74960
O953        O  0.86216848  0.79135921  0.99320112    -0.38490
O954        O  0.89052747  0.76837030  0.03129014    -0.38440
O955        O  0.92993657  0.91303043  0.05533779    -0.39140
O956        O  0.94014886  0.89305995  0.11073177    -0.39210
C957        C  0.24553433  0.75836494  0.09019779    -0.11490
C958        C  0.26853570  0.74484034  0.10675570     0.05520
C959        C  0.26636200  0.73249956  0.14417986    -0.06780
C960        C  0.24099377  0.73345703  0.16353345    -0.07520
C961        C  0.21804997  0.74720418  0.14714984    -0.02070
C962        C  0.22006159  0.75928195  0.10944387     0.04750
N963        N  0.19643087  0.77150605  0.08951895     0.67250
H964        H  0.24730423  0.76759352  0.06153244     0.16150
H965        H  0.23940796  0.72431022  0.19228521     0.15860
N966        N  0.29003571  0.72043860  0.16396518     0.74960
O967        O  0.20000972  0.78878297  0.06240058    -0.38490
O968        O  0.17228984  0.76229431  0.09478459    -0.38440
O969        O  0.31339898  0.73220714  0.16273946    -0.39140
O970        O  0.28689822  0.70040373  0.18718888    -0.39210
C971        C  0.09562995  0.87528830  0.32187264    -0.11490
C972        C  0.06704158  0.86888144  0.32144628     0.05520
C973        C  0.05815414  0.84451707  0.30182792    -0.06780
C974        C  0.07759676  0.82662134  0.28537185    -0.07520
C975        C  0.10620697  0.83201177  0.28716678    -0.02070
C976        C  0.11544799  0.85746774  0.30430590     0.04750
N977        N  0.14441950  0.86498468  0.30616850     0.67250
H978        H  0.10271654  0.89322490  0.33856289     0.16150
H979        H  0.07017504  0.80766319  0.27175254     0.15860
N980        N  0.02977887  0.83561547  0.30344252     0.74960
O981        O  0.15164696  0.88936800  0.31579567    -0.38490
O982        O  0.16302546  0.84745183  0.29880581    -0.38440
O983        O  0.01035845  0.85230819  0.29534159    -0.39140
O984        O  0.02406288  0.81166728  0.31594903    -0.39210
C985        C  0.09397547  0.85031575  0.03851167    -0.11490
C986        C  0.06726662  0.86052610  0.04599440     0.05520
C987        C  0.05677735  0.85778793  0.08407266    -0.06780
C988        C  0.07186286  0.84279053  0.11211195    -0.07520
C989        C  0.09700943  0.83002288  0.10317970    -0.02070
C990        C  0.10909249  0.83517510  0.06679332     0.04750
N991        N  0.13563113  0.82388699  0.05729511     0.67250
H992        H  0.10257161  0.85293672  0.50977708     0.16150
H993        H  0.06260046  0.83894982  0.14017463     0.15860
N994        N  0.02955477  0.86699880  0.09371642     0.74960
O995        O  0.14033282  0.81607954  0.02280669    -0.38490
O996        O  0.15559292  0.82569473  0.08162253    -0.38440
O997        O  0.00867335  0.85383767  0.08051607    -0.39140
O998        O  0.02665496  0.88353132  0.12206111    -0.39210
C999        C  0.08935238  0.65310187  0.09964656    -0.11490
C1000       C  0.08733272  0.68204901  0.09423854     0.05520
C1001       C  0.07173053  0.69250986  0.06220913    -0.06780
C1002       C  0.05714849  0.67399551  0.03804228    -0.07520
C1003       C  0.05840071  0.64517927  0.04375330    -0.02070
C1004       C  0.07515698  0.63420471  0.07447302     0.04750
N1005       N  0.07834617  0.60463914  0.08042768     0.67250
H1006       H  0.10132536  0.64532058  0.12440880     0.16150
H1007       H  0.04509402  0.68220524  0.01355954     0.15860
N1008       N  0.07098374  0.72174845  0.05322946     0.74960
O1009       O  0.09632341  0.59563806  0.10457402    -0.38490
O1010       O  0.06335180  0.58726718  0.06196191    -0.38440
O1011       O  0.09279345  0.73624591  0.05605392    -0.39140
O1012       O  0.04948240  0.73234651  0.03780334    -0.39210
C1013       C  0.09087898  0.64777188  0.26902055    -0.11490
C1014       C  0.11124967  0.66450336  0.28789095     0.05520
C1015       C  0.11615484  0.66084741  0.32832752    -0.06780
C1016       C  0.09901061  0.64267732  0.34914388    -0.07520
C1017       C  0.07618141  0.62861452  0.33138072    -0.02070
C1018       C  0.07331526  0.62985287  0.29014179     0.04750
N1019       N  0.05185291  0.61465273  0.26954257     0.67250
H1020       H  0.08718864  0.65025577  0.23787934     0.16150
H1021       H  0.10225445  0.64114404  0.38049658     0.15860
N1022       N  0.13752994  0.67633528  0.34898618     0.74960
O1023       O  0.04029736  0.62486697  0.23941891    -0.38490
O1024       O  0.04763655  0.58940883  0.27746013    -0.38440
O1025       O  0.13564020  0.68119953  0.38511797    -0.39140
O1026       O  0.15929311  0.68356868  0.33190705    -0.39210
C1027       C  0.01392623  0.78864653  0.23608081    -0.11490
C1028       C  0.02514883  0.76322498  0.24824270     0.05520
C1029       C  0.00802204  0.74076308  0.25777723    -0.06780
C1030       C  0.97961398  0.74380106  0.25184607    -0.07520
C1031       C  0.96869052  0.76790085  0.23444780    -0.02070
C1032       C  0.98572378  0.79115035  0.22767598     0.04750
N1033       N  0.97597650  0.81561440  0.20747159     0.67250
H1034       H  0.02772555  0.80528505  0.22758804     0.16150
H1035       H  0.96621995  0.72612670  0.25681899     0.15860
N1036       N  0.01920429  0.71378963  0.26722746     0.74960
O1037       O  0.98807816  0.83858752  0.21349331    -0.38490
O1038       O  0.95952957  0.81347281  0.17839121    -0.38440
O1039       O  0.04167078  0.71149920  0.28650587    -0.39140
O1040       O  0.00680955  0.69200841  0.25567424    -0.39210
Zn1041     Zn  0.08920963  0.75438976  0.66818301     1.49720
Zn1042     Zn  0.11228173  0.75087425  0.75680886     1.49360
Zn1043     Zn  0.13913565  0.71594414  0.68924360     1.49110
Zn1044     Zn  0.14323772  0.78495894  0.69238680     1.49480
O1045       O  0.12156084  0.75130947  0.70121388    -1.83350
O1046       O  0.05696551  0.75769366  0.69989314    -0.73980
O1047       O  0.11792376  0.71339750  0.78271255    -0.73800
O1048       O  0.12131833  0.69670429  0.64198608    -0.73310
O1049       O  0.07216523  0.75507732  0.76149532    -0.73990
O1050       O  0.08348037  0.72208290  0.63333769    -0.73590
O1051       O  0.13083993  0.68738059  0.73240809    -0.74180
O1052       O  0.18191451  0.77211619  0.67767282    -0.73570
O1053       O  0.12385246  0.78581780  0.78597746    -0.74320
O1054       O  0.17890215  0.72533760  0.67451800    -0.73710
O1055       O  0.13385108  0.81315914  0.73606727    -0.74180
O1056       O  0.12979398  0.80755129  0.64585149    -0.74090
O1057       O  0.08861572  0.78830846  0.63580978    -0.73880
C1058       C  0.05296347  0.75808460  0.73624041     0.77910
C1059       C  0.12160659  0.68961011  0.76699627     0.78400
C1060       C  0.09817791  0.70123301  0.62467216     0.77360
C1061       C  0.19190850  0.74822957  0.66886607     0.77740
C1062       C  0.12407668  0.80980369  0.77011840     0.78870
C1063       C  0.10607876  0.80729780  0.62906801     0.77920
Zn1064     Zn  0.90117212  0.72547575  0.68491434     1.49720
Zn1065     Zn  0.88882927  0.78752579  0.68991531     1.49360
Zn1066     Zn  0.85799924  0.74988398  0.63169252     1.49110
Zn1067     Zn  0.84782872  0.74873054  0.72883216     1.49480
O1068       O  0.87234365  0.75165537  0.68394874    -1.83350
O1069       O  0.93629888  0.74347789  0.69714176    -0.73980
O1070       O  0.89724226  0.80502468  0.64031361    -0.73800
O1071       O  0.86796614  0.71445335  0.60303769    -0.73310
O1072       O  0.92347195  0.78432193  0.72140301    -0.73990
O1073       O  0.90390051  0.70113811  0.63921366    -0.73590
O1074       O  0.86857256  0.78305992  0.59934204    -0.74180
O1075       O  0.80762232  0.74675274  0.70043277    -0.73570
O1076       O  0.86439847  0.81334907  0.71675593    -0.74320
O1077       O  0.81880825  0.74903519  0.63722319    -0.73710
O1078       O  0.85847624  0.78433479  0.76479028    -0.74180
O1079       O  0.86021090  0.71282427  0.76206889    -0.74090
O1080       O  0.89664697  0.70031232  0.72770851    -0.73880
C1081       C  0.94131201  0.76535029  0.71691468     0.77910
C1082       C  0.88592712  0.80242810  0.60674283     0.78400
C1083       C  0.88775306  0.69763103  0.60999281     0.77360
C1084       C  0.80093360  0.74678534  0.66351679     0.77740
C1085       C  0.86561956  0.80860710  0.75295936     0.78870
C1086       C  0.88134397  0.69703280  0.75675497     0.77920
Zn1087     Zn  0.99794742  0.59222321  0.88280403     1.49720
Zn1088     Zn  0.02811693  0.63770128  0.93330425     1.49360
Zn1089     Zn  0.96379111  0.63843685  0.92323089     1.49110
Zn1090     Zn  0.99141130  0.60112017  0.98174161     1.49480
O1091       O  0.99564979  0.61567137  0.92966461    -1.83350
O1092       O  0.03501360  0.60129750  0.85124070    -0.73980
O1093       O  0.01710868  0.67638813  0.93468769    -0.73800
O1094       O  0.93589347  0.62294735  0.88686177    -0.73310
O1095       O  0.05154648  0.63519019  0.88858812    -0.73990
O1096       O  0.96530692  0.60593514  0.84457049    -0.73590
O1097       O  0.97491075  0.67537901  0.90693807    -0.74180
O1098       O  0.95424035  0.60931510  0.50683812    -0.73570
O1099       O  0.05219184  0.63134871  0.97914861    -0.74320
O1100       O  0.94359366  0.64549939  0.97042646    -0.73710
O1101       O  0.02024524  0.61771920  0.52025617    -0.74180
O1102       O  0.99492153  0.56121571  0.97329559    -0.74090
O1103       O  0.99621566  0.55207143  0.90844995    -0.73880
C1104       C  0.05307416  0.62054010  0.85805519     0.77910
C1105       C  0.99627973  0.68835082  0.91922585     0.78400
C1106       C  0.94271151  0.61881937  0.85203112     0.77360
C1107       C  0.93936395  0.63062875  0.49995417     0.77740
C1108       C  0.04361777  0.62885722  0.51354448     0.78870
C1109       C  0.99578402  0.54427818  0.94462768     0.77920
Zn1110     Zn  0.96604304  0.85523941  0.92580060     1.49720
Zn1111     Zn  0.99381738  0.90407253  0.88543978     1.49360
Zn1112     Zn  0.99486351  0.89209789  0.98256360     1.49110
Zn1113     Zn  0.03123372  0.85765159  0.93070957     1.49480
O1114       O  0.99752841  0.87873377  0.92978575    -1.83350
O1115       O  0.94942605  0.85184399  0.87437679    -0.73980
O1116       O  0.99308632  0.94359809  0.91451049    -0.73800
O1117       O  0.96157572  0.87787055  0.50996726    -0.73310
O1118       O  0.95606506  0.89425784  0.85207949    -0.73990
O1119       O  0.93522086  0.86531608  0.95963642    -0.73590
O1120       O  0.99197193  0.93171701  0.97803855    -0.74180
O1121       O  0.05493104  0.86027995  0.97871071    -0.73570
O1122       O  0.02840007  0.89481351  0.84908363    -0.74320
O1123       O  0.02710933  0.88256678  0.51813914    -0.73710
O1124       O  0.05345195  0.86513050  0.88534509    -0.74180
O1125       O  0.02146511  0.81808075  0.92800370    -0.74090
O1126       O  0.97631229  0.81770278  0.93810988    -0.73880
C1127       C  0.94296621  0.87083556  0.85065058     0.77910
C1128       C  0.99175824  0.94983812  0.95128167     0.78400
C1129       C  0.93860434  0.86906436  0.49599062     0.77360
C1130       C  0.04922527  0.86905642  0.51252157     0.77740
C1131       C  0.04937367  0.87842935  0.85393226     0.78870
C1132       C  0.99901117  0.80516986  0.93389873     0.77920
Zn1133     Zn  0.65078353  0.74792188  0.51542190     1.49720
Zn1134     Zn  0.63360342  0.75069168  0.61063777     1.49360
Zn1135     Zn  0.59782802  0.77677698  0.54717934     1.49110
Zn1136     Zn  0.60338180  0.71062329  0.55431760     1.49480
O1137       O  0.62251506  0.74644674  0.55614506    -1.83350
O1138       O  0.68851226  0.74905391  0.54992982    -0.73980
O1139       O  0.61998451  0.78512159  0.63799148    -0.73800
O1140       O  0.60784387  0.80229941  0.50663710    -0.73310
O1141       O  0.67342170  0.75072443  0.61148145    -0.73990
O1142       O  0.64378928  0.78323859  0.97788167    -0.73590
O1143       O  0.59011874  0.79962984  0.59314917    -0.74180
O1144       O  0.56427540  0.71701523  0.53953268    -0.73570
O1145       O  0.61949505  0.72034017  0.64493537    -0.74320
O1146       O  0.56283110  0.76227776  0.52893493    -0.73710
O1147       O  0.60193425  0.68899446  0.60380800    -0.74180
O1148       O  0.61569073  0.68625984  0.51273206    -0.74090
O1149       O  0.64355299  0.71278837  0.97801927    -0.73880
C1150       C  0.69298476  0.75053184  0.58740543     0.77910
C1151       C  0.60033165  0.80109207  0.62740500     0.78400
C1152       C  0.62508509  0.80223477  0.97955024     0.77360
C1153       C  0.55137386  0.73863543  0.52865238     0.77740
C1154       C  0.60707834  0.69746018  0.63828328     0.78870
C1155       C  0.62864493  0.69074673  0.98165598     0.77920
Zn1156     Zn  0.34701791  0.71000090  0.56935962     1.49720
Zn1157     Zn  0.34590585  0.78000098  0.56516073     1.49360
Zn1158     Zn  0.39640648  0.74616552  0.60035770     1.49110
Zn1159     Zn  0.37859143  0.74261592  0.50741221     1.49480
O1160       O  0.36648421  0.74495791  0.56147261    -1.83350
O1161       O  0.30752164  0.72140258  0.58153827    -0.73980
O1162       O  0.35933671  0.80360114  0.61160504    -0.73800
O1163       O  0.39703706  0.71397772  0.63744474    -0.73310
O1164       O  0.30618057  0.76824025  0.57742454    -0.73990
O1165       O  0.36124302  0.68858661  0.61683173    -0.73590
O1166       O  0.39638466  0.78055277  0.63305888    -0.74180
O1167       O  0.41817326  0.73639351  0.51013446    -0.73570
O1168       O  0.35476269  0.80681856  0.51891442    -0.74320
O1169       O  0.43119202  0.74484020  0.57210162    -0.73710
O1170       O  0.37721536  0.77890563  0.97876042    -0.74180
O1171       O  0.36636385  0.70941701  0.97544013    -0.74090
O1172       O  0.35667753  0.68214773  0.52523966    -0.73880
C1173       C  0.29515574  0.74476985  0.58607694     0.77910
C1174       C  0.38027001  0.80131363  0.63464903     0.78400
C1175       C  0.38179083  0.69256798  0.64009815     0.77360
C1176       C  0.43648483  0.73959228  0.53669404     0.77740
C1177       C  0.36922861  0.80310617  0.98839868     0.78870
C1178       C  0.36482026  0.68526556  0.99024230     0.77920
Zn1179     Zn  0.45816885  0.59719091  0.82276543     1.49720
Zn1180     Zn  0.52753016  0.60002631  0.81561306     1.49360
Zn1181     Zn  0.48562131  0.63997101  0.77964894     1.49110
Zn1182     Zn  0.49428282  0.64121218  0.87024572     1.49480
O1183       O  0.49231629  0.61807482  0.82483769    -1.83350
O1184       O  0.47019032  0.55833564  0.80453820    -0.73980
O1185       O  0.54814182  0.61753759  0.76976993    -0.73800
O1186       O  0.46276710  0.62205300  0.73751199    -0.73310
O1187       O  0.51659908  0.56002892  0.80094831    -0.73990
O1188       O  0.43149473  0.61355034  0.78132776    -0.73590
O1189       O  0.52014443  0.65264733  0.75721286    -0.74180
O1190       O  0.48531696  0.67954017  0.85350070    -0.73570
O1191       O  0.55590888  0.60873262  0.86078639    -0.74320
O1192       O  0.46547563  0.67339262  0.79501964    -0.73710
O1193       O  0.53359096  0.64235318  0.89238346    -0.74180
O1194       O  0.46320572  0.63309536  0.90780446    -0.74090
O1195       O  0.43609006  0.60402084  0.87300852    -0.73880
C1196       C  0.49340021  0.54714510  0.79563462     0.77910
C1197       C  0.54326150  0.64069993  0.75311686     0.78400
C1198       C  0.43763495  0.62113042  0.74704764     0.77360
C1199       C  0.47143665  0.68863819  0.82425113     0.77740
C1200       C  0.55570918  0.62881079  0.88561606     0.78870
C1201       C  0.44018189  0.62031441  0.90234803     0.77920
Zn1202     Zn  0.48710592  0.85214713  0.77614893     1.49720
Zn1203     Zn  0.52646204  0.89537236  0.81327611     1.49360
Zn1204     Zn  0.45738891  0.89630536  0.81784754     1.49110
Zn1205     Zn  0.49325469  0.85399524  0.86773235     1.49480
O1206       O  0.49170307  0.87573422  0.82080773    -1.83350
O1207       O  0.52250056  0.84269036  0.75225835    -0.73980
O1208       O  0.51538818  0.93524730  0.79831049    -0.73800
O1209       O  0.43133816  0.87953542  0.77606819    -0.73310
O1210       O  0.54605623  0.88134311  0.76511005    -0.73990
O1211       O  0.46262994  0.86728416  0.73371366    -0.73590
O1212       O  0.46879777  0.93493487  0.79774516    -0.74180
O1213       O  0.46201961  0.86263467  0.90458418    -0.73570
O1214       O  0.55567412  0.88492686  0.85721733    -0.74320
O1215       O  0.43432235  0.88920280  0.86736110    -0.73710
O1216       O  0.53250402  0.85246116  0.88981841    -0.74180
O1217       O  0.48318922  0.81529204  0.85415477    -0.74090
O1218       O  0.46898345  0.81772732  0.79232371    -0.73880
C1219       C  0.54305204  0.85851719  0.74663902     0.77910
C1220       C  0.49195919  0.94668573  0.78976981     0.78400
C1221       C  0.43750444  0.87038956  0.74250211     0.77360
C1222       C  0.43830907  0.87332238  0.89697321     0.77740
C1223       C  0.55505370  0.86504166  0.88218305     0.78870
C1224       C  0.47109668  0.80468359  0.82434780     0.77920
Zn1225     Zn  0.60578440  0.24767969  0.99551228     1.49720
Zn1226     Zn  0.59683308  0.24586108  0.90609373     1.49360
Zn1227     Zn  0.64510339  0.28169074  0.94004553     1.49110
Zn1228     Zn  0.64411479  0.21166841  0.94177289     1.49480
O1229       O  0.62448401  0.24702138  0.94671270    -1.83350
O1230       O  0.56633114  0.25580997  0.98552838    -0.73980
O1231       O  0.59060323  0.28184688  0.88047266    -0.73800
O1232       O  0.64101502  0.30694760  0.98994652    -0.73310
O1233       O  0.56134005  0.23554800  0.92744392    -0.73990
O1234       O  0.61747296  0.27968729  0.52982610    -0.73590
O1235       O  0.62797568  0.30634416  0.89700258    -0.74180
O1236       O  0.68258504  0.22246829  0.92170119    -0.73570
O1237       O  0.60346436  0.21879848  0.86472968    -0.74320
O1238       O  0.68257563  0.26924322  0.91856827    -0.73710
O1239       O  0.62770154  0.18760750  0.89804972    -0.74180
O1240       O  0.63738391  0.18539152  0.98914285    -0.74090
O1241       O  0.60588709  0.20969188  0.52086280    -0.73880
C1242       C  0.55136743  0.24622896  0.95782360     0.77910
C1243       C  0.60513895  0.30366219  0.87799245     0.78400
C1244       C  0.62754003  0.30341249  0.52148778     0.77360
C1245       C  0.69359625  0.24555546  0.91107293     0.77740
C1246       C  0.61312662  0.19451160  0.86833711     0.78870
C1247       C  0.61856611  0.18694660  0.51462488     0.77920
Zn1248     Zn  0.39086056  0.22085858  0.93009514     1.49720
Zn1249     Zn  0.38343302  0.28315906  0.93275360     1.49360
Zn1250     Zn  0.34755567  0.24493418  0.88018431     1.49110
Zn1251     Zn  0.34338428  0.24679119  0.98040012     1.49480
O1252       O  0.36398144  0.24870773  0.93151866    -1.83350
O1253       O  0.42526387  0.23692543  0.91331363    -0.73980
O1254       O  0.38557461  0.30131318  0.88188525    -0.73800
O1255       O  0.35821071  0.20965046  0.85049885    -0.73310
O1256       O  0.42241091  0.27531752  0.94879118    -0.73990
O1257       O  0.38462148  0.18956279  0.89508473    -0.73590
O1258       O  0.35721997  0.27642086  0.84385154    -0.74180
O1259       O  0.30145555  0.24498651  0.95642479    -0.73570
O1260       O  0.36651429  0.31042174  0.96770349    -0.74320
O1261       O  0.30868322  0.24459244  0.89149432    -0.73710
O1262       O  0.35614842  0.28230706  0.51577343    -0.74180
O1263       O  0.35881609  0.21145497  0.51339475    -0.74090
O1264       O  0.39721456  0.20437293  0.98061136    -0.73880
C1265       C  0.43656120  0.25635078  0.93284382     0.77910
C1266       C  0.37400296  0.29661536  0.84900493     0.78400
C1267       C  0.37360702  0.18951544  0.86137169     0.77360
C1268       C  0.29250376  0.24434018  0.92029952     0.77740
C1269       C  0.36539791  0.30585499  0.50387349     0.78870
C1270       C  0.38270103  0.19975500  0.51010276     0.77920
Zn1271     Zn  0.46205500  0.14176574  0.67162409     1.49720
Zn1272     Zn  0.49422722  0.10655285  0.73221376     1.49360
Zn1273     Zn  0.49662911  0.09463540  0.63476863     1.49110
Zn1274     Zn  0.52566757  0.14411528  0.67655138     1.49480
O1275       O  0.49501939  0.12016090  0.67942282    -1.83350
O1276       O  0.44382294  0.15203501  0.72028804    -0.73980
O1277       O  0.49381335  0.06589783  0.72623689    -0.73800
O1278       O  0.46346008  0.10780204  0.59740514    -0.73310
O1279       O  0.45862655  0.11843130  0.75945821    -0.73990
O1280       O  0.43385872  0.11994124  0.64214600    -0.73590
O1281       O  0.49398563  0.05472655  0.66228572    -0.74180
O1282       O  0.55573294  0.12956170  0.64638433    -0.73570
O1283       O  0.52862845  0.11878847  0.76486012    -0.74320
O1284       O  0.53346876  0.10355995  0.60268950    -0.73710
O1285       O  0.54328870  0.15215615  0.72637736    -0.74180
O1286       O  0.51595495  0.17855123  0.64988859    -0.74090
O1287       O  0.47051253  0.17579850  0.64077344    -0.73880
C1288       C  0.44153178  0.13791043  0.75122758     0.77910
C1289       C  0.49339522  0.04788754  0.69885800     0.78400
C1290       C  0.44000364  0.11824762  0.60662446     0.77360
C1291       C  0.55477716  0.11820756  0.61312719     0.77740
C1292       C  0.54544927  0.13857006  0.75785170     0.78870
C1293       C  0.49350757  0.18809588  0.63570263     0.77920
Zn1294     Zn  0.46286560  0.39030177  0.68375057     1.49720
Zn1295     Zn  0.53065269  0.39204129  0.68626351     1.49360
Zn1296     Zn  0.49899553  0.33701074  0.70463202     1.49110
Zn1297     Zn  0.49805906  0.36192904  0.61803391     1.49480
O1298       O  0.49747171  0.37056763  0.67379321    -1.83350
O1299       O  0.47275029  0.43030797  0.69967270    -0.73980
O1300       O  0.54976375  0.37879524  0.73583160    -0.73800
O1301       O  0.46408949  0.33243619  0.73365085    -0.73310
O1302       O  0.51902810  0.43176721  0.69883983    -0.73990
O1303       O  0.44223735  0.37284136  0.72799916    -0.73590
O1304       O  0.53075397  0.33719329  0.74371982    -0.74180
O1305       O  0.49811040  0.32134405  0.61052382    -0.73570
O1306       O  0.55968497  0.38335958  0.64473428    -0.74320
O1307       O  0.50053698  0.30370425  0.67039440    -0.73710
O1308       O  0.53429107  0.37184664  0.59198239    -0.74180
O1309       O  0.46135371  0.36978537  0.59091806    -0.74090
O1310       O  0.43424271  0.38329008  0.63884281    -0.73880
C1311       C  0.49572790  0.44326715  0.70587106     0.77910
C1312       C  0.54847201  0.35571357  0.75360903     0.78400
C1313       C  0.44368802  0.34811252  0.74091140     0.77360
C1314       C  0.49884231  0.30088377  0.63351639     0.77740
C1315       C  0.55779480  0.37430938  0.60958029     0.78870
C1316       C  0.43715613  0.37341127  0.60452571     0.77920
Zn1317     Zn  0.13753484  0.21467081  0.80944280     1.49720
Zn1318     Zn  0.13730756  0.28410513  0.81287394     1.49360
Zn1319     Zn  0.10220162  0.25033051  0.75315343     1.49110
Zn1320     Zn  0.08818643  0.24804063  0.84276629     1.49480
O1321       O  0.11713521  0.24922253  0.80525099    -1.83350
O1322       O  0.17716066  0.22549798  0.82370368    -0.73980
O1323       O  0.12864615  0.31026851  0.76517468    -0.73800
O1324       O  0.09763656  0.21258315  0.72930560    -0.73310
O1325       O  0.17666542  0.27213067  0.82959308    -0.73990
O1326       O  0.12588915  0.18622268  0.76535386    -0.73590
O1327       O  0.12121082  0.27825073  0.71979588    -0.74180
O1328       O  0.05278605  0.26083744  0.81893773    -0.73570
O1329       O  0.12258089  0.30560264  0.85970462    -0.74320
O1330       O  0.06415777  0.26372982  0.75667896    -0.73710
O1331       O  0.09511504  0.27437864  0.88667817    -0.74180
O1332       O  0.08379891  0.21015246  0.86492969    -0.74090
O1333       O  0.12592017  0.19301639  0.85616683    -0.73880
C1334       C  0.18863764  0.24849709  0.83439225     0.77910
C1335       C  0.12084181  0.30361500  0.73035461     0.78400
C1336       C  0.10702547  0.18880665  0.73862381     0.77360
C1337       C  0.04696609  0.26675234  0.78363980     0.77740
C1338       C  0.10702875  0.29795250  0.88728240     0.78870
C1339       C  0.10223459  0.19182771  0.87136435     0.77920
Zn1340     Zn  0.83916010  0.24780503  0.75514433     1.49720
Zn1341     Zn  0.84929509  0.24857076  0.85189560     1.49360
Zn1342     Zn  0.89470500  0.22894356  0.79980823     1.49110
Zn1343     Zn  0.87731538  0.29150697  0.79850207     1.49480
O1344       O  0.86412031  0.25343063  0.80085490    -1.83350
O1345       O  0.79849300  0.24579562  0.78098229    -0.73980
O1346       O  0.86058019  0.21248930  0.87732845    -0.73800
O1347       O  0.89050049  0.20178624  0.75791137    -0.73310
O1348       O  0.80958656  0.24756303  0.84490608    -0.73990
O1349       O  0.85119097  0.21028002  0.72575202    -0.73590
O1350       O  0.89986845  0.20588795  0.84675760    -0.74180
O1351       O  0.91552423  0.29291298  0.77742761    -0.73570
O1352       O  0.86064571  0.27918169  0.88943299    -0.74320
O1353       O  0.92832122  0.24923774  0.78883817    -0.73710
O1354       O  0.88045056  0.30945517  0.85041200    -0.74180
O1355       O  0.85326295  0.31369353  0.76336083    -0.74090
O1356       O  0.84992429  0.28184292  0.71740843    -0.73880
C1357       C  0.79159901  0.24570291  0.81741123     0.77910
C1358       C  0.88303631  0.19921596  0.87301292     0.78400
C1359       C  0.87322474  0.19554395  0.73093136     0.77360
C1360       C  0.93357301  0.27376333  0.77779578     0.77740
C1361       C  0.87377367  0.30178237  0.88433873     0.78870
C1362       C  0.85576681  0.30698394  0.72779250     0.77920
Zn1363     Zn  0.98909207  0.09585014  0.60409072     1.49720
Zn1364     Zn  0.03212211  0.13743846  0.57045553     1.49360
Zn1365     Zn  0.99393183  0.10844689  0.50865788     1.49110
Zn1366     Zn  0.96913207  0.15128657  0.56218273     1.49480
O1367       O  0.99539824  0.12212871  0.56159035    -1.83350
O1368       O  0.02132521  0.10430663  0.64568862    -0.73980
O1369       O  0.05285338  0.14163745  0.52202409    -0.73800
O1370       O  0.99425996  0.06873669  0.51268445    -0.73310
O1371       O  0.05516770  0.11485141  0.60624215    -0.73990
O1372       O  0.98980082  0.05629312  0.57541182    -0.73590
O1373       O  0.02718816  0.11939139  0.97768875    -0.74180
O1374       O  0.94596469  0.15456392  0.51473676    -0.73570
O1375       O  0.02968000  0.17487423  0.59483826    -0.74320
O1376       O  0.95916054  0.11915963  0.97838403    -0.73710
O1377       O  0.98720926  0.18623865  0.57419677    -0.74180
O1378       O  0.94278782  0.14690458  0.60371978    -0.74090
O1379       O  0.95173059  0.10665884  0.63272946    -0.73880
C1380       C  0.04650022  0.11200271  0.64057355     0.77910
C1381       C  0.04901769  0.13289119  0.98734093     0.78400
C1382       C  0.99243302  0.05032384  0.53879275     0.77360
C1383       C  0.94277776  0.13924585  0.98481282     0.77740
C1384       C  0.01018897  0.19232906  0.59073742     0.78870
C1385       C  0.93737014  0.12911310  0.62950491     0.77920
Zn1386     Zn  0.99342726  0.34449690  0.53666829     1.49720
Zn1387     Zn  0.99404368  0.36420716  0.62660851     1.49360
Zn1388     Zn  0.02873584  0.39536477  0.56500969     1.49110
Zn1389     Zn  0.95917880  0.39611716  0.56371626     1.49480
O1390       O  0.99372830  0.37560195  0.57235375    -1.83350
O1391       O  0.99930891  0.31046542  0.56614200    -0.73980
O1392       O  0.02442408  0.38251290  0.65923958    -0.73800
O1393       O  0.05169107  0.37845510  0.52168083    -0.73310
O1394       O  0.00272788  0.32453874  0.62795134    -0.73990
O1395       O  0.02455751  0.34439672  0.99958732    -0.73590
O1396       O  0.05509032  0.38972508  0.61321749    -0.74180
O1397       O  0.97092274  0.43521962  0.54627114    -0.73570
O1398       O  0.95650190  0.36421274  0.65035261    -0.74320
O1399       O  0.01739855  0.43326241  0.54519709    -0.73710
O1400       O  0.93050037  0.38756926  0.60748173    -0.74180
O1401       O  0.93691762  0.38089982  0.51795221    -0.74090
O1402       O  0.95806311  0.34087368  0.00679293    -0.73880
C1403       C  0.00364855  0.30580901  0.60210804     0.77910
C1404       C  0.04945373  0.38251269  0.64803392     0.78400
C1405       C  0.04699563  0.35810086  0.99860442     0.77360
C1406       C  0.99449540  0.44564106  0.53719911     0.77740
C1407       C  0.93288557  0.37258114  0.63828271     0.78870
C1408       C  0.93803411  0.35747426  0.00081699     0.77920
C1409       C  0.98968629  0.23228428  0.62205647    -0.11490
C1410       C  0.01320544  0.22052817  0.60527064     0.05520
C1411       C  0.03633539  0.23718189  0.59672678    -0.06780
C1412       C  0.03406722  0.26587295  0.60153145    -0.07520
C1413       C  0.00914651  0.27762355  0.61354463    -0.02070
C1414       C  0.98712765  0.26091239  0.62571124     0.04750
N1415       N  0.96095419  0.27267131  0.63647997     0.67250
H1416       H  0.97218390  0.21919891  0.62912658     0.16150
H1417       H  0.05059249  0.27924674  0.59163124     0.15860
N1418       N  0.06058276  0.22607484  0.57876207     0.74960
O1419       O  0.93854474  0.26084916  0.62619870    -0.38490
O1420       O  0.96007626  0.29416911  0.65770407    -0.38440
O1421       O  0.05822669  0.21091089  0.54865903    -0.39140
O1422       O  0.08421627  0.23538534  0.58859365    -0.39210
C1423       C  0.89238090  0.15280920  0.64131703    -0.11490
C1424       C  0.91497899  0.13733615  0.65676340     0.05520
C1425       C  0.91878201  0.13655365  0.69772207    -0.06780
C1426       C  0.90159731  0.15280693  0.72138542    -0.07520
C1427       C  0.88142137  0.17125167  0.70564279    -0.02070
C1428       C  0.87553737  0.16960193  0.66507042     0.04750
N1429       N  0.85396569  0.18598551  0.64711488     0.67250
H1430       H  0.88890874  0.15323390  0.60994250     0.16150
H1431       H  0.90638931  0.15335600  0.75239233     0.15860
N1432       N  0.94192293  0.12244102  0.71576921     0.74960
O1433       O  0.85737987  0.19653372  0.61384253    -0.38490
O1434       O  0.83005039  0.18603951  0.66127278    -0.38440
O1435       O  0.96624680  0.12757336  0.70501555    -0.39140
O1436       O  0.93863046  0.10928379  0.74717083    -0.39210
C1437       C  0.92476272  0.14121666  0.91669403    -0.11490
C1438       C  0.92062333  0.14648617  0.95638607     0.05520
C1439       C  0.89783903  0.16301165  0.96762786    -0.06780
C1440       C  0.88373657  0.17866185  0.93911076    -0.07520
C1441       C  0.89090565  0.17660005  0.89982875    -0.02070
C1442       C  0.90940186  0.15553651  0.88807673     0.04750
N1443       N  0.91296973  0.14898655  0.84744487     0.67250
H1444       H  0.94100959  0.12714436  0.90796288     0.16150
H1445       H  0.86825390  0.19358795  0.94784500     0.15860
N1446       N  0.88944792  0.16460528  0.50768564     0.74960
O1447       O  0.93549783  0.13889424  0.83590381    -0.38490
O1448       O  0.89242199  0.14983752  0.82398290    -0.38440
O1449       O  0.87727848  0.18596211  0.52022327    -0.39140
O1450       O  0.89097877  0.14336086  0.52918663    -0.39210
C1451       C  0.88754554  0.34771446  0.72061017    -0.11490
C1452       C  0.87047433  0.32751065  0.70179386     0.05520
C1453       C  0.87126284  0.32586860  0.66040130    -0.06780
C1454       C  0.89000161  0.34306064  0.63988483    -0.07520
C1455       C  0.90811780  0.36191919  0.65933014    -0.02070
C1456       C  0.90637649  0.36449850  0.70032360     0.04750
N1457       N  0.92425513  0.38333423  0.72203857     0.67250
H1458       H  0.88732554  0.34965512  0.75213182     0.16150
H1459       H  0.89148244  0.34067525  0.60850334     0.15860
N1460       N  0.85356216  0.30695533  0.63875049     0.74960
O1461       O  0.93046971  0.37862622  0.75744003    -0.38490
O1462       O  0.93244379  0.40567855  0.70682205    -0.38440
O1463       O  0.82887350  0.30309674  0.64889868    -0.39140
O1464       O  0.86130680  0.29687808  0.60667611    -0.39210
C1465       C  0.89261182  0.34611801  0.91121618    -0.11490
C1466       C  0.88373554  0.31867643  0.91808245     0.05520
C1467       C  0.88845628  0.30696712  0.95546751    -0.06780
C1468       C  0.90378990  0.32192824  0.98352834    -0.07520
C1469       C  0.91520657  0.34796548  0.97503623    -0.02070
C1470       C  0.90845228  0.36098705  0.93917963     0.04750
N1471       N  0.91915992  0.38798061  0.92934077     0.67250
H1472       H  0.88843207  0.35556003  0.88300612     0.16150
H1473       H  0.90896742  0.31200300  0.01114573     0.15860
N1474       N  0.88076857  0.27891988  0.96429254     0.74960
O1475       O  0.92448342  0.39363439  0.89429662    -0.38490
O1476       O  0.91976087  0.40734899  0.95433132    -0.38440
O1477       O  0.89310534  0.25902763  0.94799340    -0.39140
O1478       O  0.86689439  0.27412903  0.99435768    -0.39210
C1479       C  0.06125784  0.33813314  0.67679306    -0.11490
C1480       C  0.06990550  0.36545481  0.67106496     0.05520
C1481       C  0.09767320  0.37250856  0.68179864    -0.06780
C1482       C  0.11459655  0.35213980  0.70108888    -0.07520
C1483       C  0.10568111  0.32423942  0.70491215    -0.02070
C1484       C  0.07911762  0.31719418  0.68939590     0.04750
N1485       N  0.06968937  0.28896270  0.68481562     0.67250
H1486       H  0.04065853  0.33232587  0.66837395     0.16150
H1487       H  0.13488737  0.35790572  0.71259403     0.15860
N1488       N  0.10880020  0.39976368  0.67444762     0.74960
O1489       O  0.04434390  0.28346751  0.68902418    -0.38490
O1490       O  0.08407389  0.27201109  0.66572790    -0.38440
O1491       O  0.09301189  0.42014531  0.66760991    -0.38660
O1492       O  0.13468792  0.40365522  0.67498417    -0.39210
C1493       C  0.09085260  0.34398628  0.90993068    -0.11490
C1494       C  0.10032063  0.31718167  0.91945857     0.05520
C1495       C  0.09673475  0.30697754  0.95763263    -0.06780
C1496       C  0.08070348  0.32231476  0.98357089    -0.07520
C1497       C  0.06865745  0.34773034  0.97273876    -0.02070
C1498       C  0.07482228  0.35964468  0.93608238     0.04750
N1499       N  0.06400313  0.38633583  0.92382047     0.67250
H1500       H  0.09378953  0.35160159  0.88056301     0.16150
H1501       H  0.07652632  0.31379039  0.01213322     0.15860
N1502       N  0.10830567  0.28070444  0.96984016     0.74960
O1503       O  0.07220915  0.39736209  0.89270450    -0.38490
O1504       O  0.04658764  0.39934007  0.94384200    -0.38440
O1505       O  0.13068204  0.27210415  0.95573511    -0.39140
O1506       O  0.09764525  0.26722830  0.99732126    -0.39210
C1507       C  0.06240747  0.13502530  0.91784715    -0.11490
C1508       C  0.06924168  0.14046841  0.95728020     0.05520
C1509       C  0.09302135  0.15684892  0.96651848    -0.06780
C1510       C  0.10542929  0.17192049  0.93675323    -0.07520
C1511       C  0.09583919  0.16935442  0.89812622    -0.02070
C1512       C  0.07600730  0.14887870  0.88783551     0.04750
N1513       N  0.06914319  0.14254084  0.84752239     0.67250
H1514       H  0.04545279  0.12104484  0.91044684     0.16150
H1515       H  0.12171401  0.18676462  0.94397054     0.15860
N1516       N  0.10421813  0.15915935  0.50576102     0.74960
O1517       O  0.04802323  0.12804294  0.83884081    -0.38490
O1518       O  0.08614325  0.14788650  0.82106803    -0.38440
O1519       O  0.10804479  0.13748638  0.52586068    -0.39140
O1520       O  0.11434023  0.18191026  0.51797106    -0.39210
C1521       C  0.10725636  0.14808484  0.69254568    -0.11490
C1522       C  0.09315882  0.16408195  0.72007703     0.05520
C1523       C  0.06474747  0.15774995  0.72691166    -0.06780
C1524       C  0.05113193  0.13730363  0.70380388    -0.07520
C1525       C  0.06437536  0.12343155  0.67338378    -0.02070
C1526       C  0.09336549  0.12772940  0.66930944     0.04750
N1527       N  0.10877886  0.11215895  0.64111267     0.67250
H1528       H  0.12901679  0.15225551  0.68806477     0.16150
H1529       H  0.02908343  0.13420029  0.70720608     0.15860
N1530       N  0.04887363  0.17182348  0.75637637     0.74960
O1531       O  0.13061745  0.12214189  0.62708751    -0.38490
O1532       O  0.10222258  0.08731207  0.63309373    -0.38440
O1533       O  0.05386401  0.19666038  0.76622705    -0.39140
O1534       O  0.02803240  0.15997298  0.77057253    -0.39210
C1535       C  0.97675179  0.29944242  0.78769262    -0.11490
C1536       C  0.96178881  0.27927821  0.76638224     0.05520
C1537       C  0.97563573  0.25921513  0.74379793    -0.06780
C1538       C  0.00435475  0.25766297  0.74727590    -0.07520
C1539       C  0.01900199  0.27523498  0.77301593    -0.02070
C1540       C  0.00563720  0.29756538  0.79168763     0.04750
N1541       N  0.02073958  0.31747286  0.81570250     0.67250
H1542       H  0.96567654  0.31486965  0.80438361     0.16150
H1543       H  0.01517951  0.24113375  0.73235613     0.15860
N1544       N  0.96069257  0.23871846  0.72057140     0.74960
O1545       O  0.00809926  0.33290279  0.83930648    -0.38490
O1546       O  0.04629101  0.32158927  0.81098100    -0.38440
O1547       O  0.93653569  0.24361645  0.70746241    -0.39140
O1548       O  0.97188646  0.21582162  0.71212081    -0.39210
C1549       C  0.46942001  0.23078529  0.61600828    -0.11490
C1550       C  0.49405358  0.21545754  0.61688727     0.05520
C1551       C  0.51952357  0.22898059  0.60955506    -0.06780
C1552       C  0.52043086  0.25799013  0.61147480    -0.07520
C1553       C  0.49622206  0.27307287  0.61747636    -0.02070
C1554       C  0.47011362  0.25979422  0.61586829     0.04750
N1555       N  0.44452313  0.27521856  0.61710750     0.67250
H1556       H  0.44974064  0.22025367  0.61912153     0.16150
H1557       H  0.54015770  0.26877210  0.61061563     0.15860
N1558       N  0.54452344  0.21363053  0.60246507     0.74960
O1559       O  0.44338856  0.30001698  0.60525309    -0.38490
O1560       O  0.42223829  0.26318992  0.62589209    -0.38440
O1561       O  0.54344848  0.19122778  0.58310072    -0.39140
O1562       O  0.56792949  0.22395492  0.61132330    -0.39210
C1563       C  0.25705597  0.22275737  0.87808196    -0.11490
C1564       C  0.26285073  0.24252067  0.90777438     0.05520
C1565       C  0.24351941  0.26416416  0.91369798    -0.06780
C1566       C  0.21981490  0.26583019  0.88870877    -0.07520
C1567       C  0.21535111  0.24722489  0.85713824    -0.02070
C1568       C  0.23439707  0.22536379  0.85195039     0.04750
N1569       N  0.23231849  0.20690746  0.81877352     0.67250
H1570       H  0.27211962  0.20658321  0.87258221     0.16150
H1571       H  0.20481770  0.28212343  0.89366051     0.15860
N1572       N  0.24760117  0.28491171  0.94379118     0.74960
O1573       O  0.24088954  0.18218991  0.82151819    -0.38490
O1574       O  0.22591643  0.21633554  0.78539221    -0.38440
O1575       O  0.27154973  0.29359809  0.95311070    -0.39140
O1576       O  0.22692567  0.29628002  0.95913624    -0.39210
C1577       C  0.37279199  0.33124011  0.56972804    -0.11490
C1578       C  0.37932607  0.32737593  0.53018783     0.05520
C1579       C  0.40157865  0.34339721  0.51560809    -0.06780
C1580       C  0.41722512  0.36099286  0.54001796    -0.07520
C1581       C  0.41288638  0.36285745  0.58008880    -0.02070
C1582       C  0.38908142  0.34890353  0.59485988     0.04750
N1583       N  0.38103353  0.35185252  0.63479727     0.67250
H1584       H  0.35560948  0.31973442  0.58155619     0.16150
H1585       H  0.43491775  0.37145030  0.52768095     0.15860
N1586       N  0.41218793  0.33852681  0.47768305     0.74960
O1587       O  0.35571694  0.35443181  0.64253965    -0.38490
O1588       O  0.39817515  0.34746123  0.66239406    -0.38440
O1589       O  0.40418970  0.35091272  0.94892438    -0.39140
O1590       O  0.43577998  0.32763464  0.47544733    -0.39210
C1591       C  0.39237699  0.29775023  0.78339678    -0.11490
C1592       C  0.38345444  0.31290048  0.81568180     0.05520
C1593       C  0.39085384  0.34128409  0.81982404    -0.06780
C1594       C  0.40945168  0.35289898  0.79341144    -0.07520
C1595       C  0.42082345  0.33668956  0.76366900    -0.02070
C1596       C  0.41122385  0.30909523  0.75743250     0.04750
N1597       N  0.42096123  0.29199469  0.72591356     0.67250
H1598       H  0.38642713  0.27609402  0.78020812     0.16150
H1599       H  0.41619470  0.37426517  0.79722025     0.15860
N1600       N  0.38043269  0.35809047  0.85121589     0.74960
O1601       O  0.42207611  0.26589978  0.72959059    -0.38490
O1602       O  0.42568133  0.30244459  0.69298875    -0.38440
O1603       O  0.35723202  0.35270447  0.86577638    -0.39140
O1604       O  0.39323536  0.37976045  0.86230918    -0.39210
C1605       C  0.43840986  0.15757006  0.56163782    -0.11490
C1606       C  0.42367348  0.13585784  0.57864063     0.05520
C1607       C  0.39416467  0.13694974  0.57724156    -0.06780
C1608       C  0.38059597  0.15887447  0.55665662    -0.07520
C1609       C  0.39568345  0.18055124  0.53963111    -0.02070
C1610       C  0.42504514  0.18049681  0.54443112     0.04750
N1611       N  0.44162913  0.20408410  0.53336900     0.67250
H1612       H  0.46079328  0.15789850  0.56497606     0.16150
H1613       H  0.35825611  0.15857329  0.55290810     0.15860
N1614       N  0.37773407  0.11591377  0.59570852     0.74960
O1615       O  0.43186618  0.22839295  0.53510977    -0.38490
O1616       O  0.46726048  0.20112270  0.02741042    -0.38440
O1617       O  0.38728853  0.09182353  0.60146574    -0.39140
O1618       O  0.35290256  0.12083049  0.60425774    -0.39210
C1619       C  0.42056837  0.13673874  0.81709265    -0.11490
C1620       C  0.41870501  0.14489980  0.77788226     0.05520
C1621       C  0.39577554  0.16131031  0.76530108    -0.06780
C1622       C  0.37859097  0.17324558  0.79320200    -0.07520
C1623       C  0.38287830  0.16813462  0.83314715    -0.02070
C1624       C  0.40232575  0.14741999  0.84471419     0.04750
N1625       N  0.40460014  0.13797852  0.88449233     0.67250
H1626       H  0.43688338  0.12271253  0.82660395     0.16150
H1627       H  0.36283593  0.18790396  0.78370874     0.15860
N1628       N  0.38985388  0.16637220  0.72458197     0.74960
O1629       O  0.38301512  0.13348788  0.90367313    -0.38490
O1630       O  0.42786839  0.13121071  0.89911074    -0.38440
O1631       O  0.38957816  0.14638459  0.70052493    -0.39140
O1632       O  0.38094004  0.18979836  0.71357836    -0.39210
C1633       C  0.76034921  0.22251105  0.86263832    -0.11490
C1634       C  0.76281941  0.24176851  0.83181832     0.05520
C1635       C  0.74157908  0.26170221  0.82646077    -0.06780
C1636       C  0.71979951  0.26287015  0.85353330    -0.07520
C1637       C  0.71850474  0.24469163  0.88579383    -0.02070
C1638       C  0.73914216  0.22410854  0.89009728     0.04750
N1639       N  0.74027596  0.20616423  0.92368234     0.67250
H1640       H  0.77687761  0.20762384  0.86768320     0.16150
H1641       H  0.70338460  0.27793081  0.84906592     0.15860
N1642       N  0.74195956  0.28111332  0.79456738     0.74960
O1643       O  0.75094817  0.18229460  0.92117664    -0.38490
O1644       O  0.73445169  0.21550968  0.95703661    -0.38440
O1645       O  0.75195551  0.27413931  0.76222564    -0.39140
O1646       O  0.72911933  0.30388809  0.79685696    -0.39210
C1647       C  0.61570895  0.15959029  0.57592819    -0.11490
C1648       C  0.60889003  0.16185512  0.53617285     0.05520
C1649       C  0.58775175  0.14417180  0.52021186    -0.06780
C1650       C  0.57211513  0.12715699  0.54537837    -0.07520
C1651       C  0.57744237  0.12666396  0.58589624    -0.02070
C1652       C  0.60107708  0.14166518  0.60058663     0.04750
N1653       N  0.60951321  0.14028952  0.64109258     0.67250
H1654       H  0.63194750  0.17276359  0.58827576     0.16150
H1655       H  0.55446274  0.11569423  0.53359924     0.15860
N1656       N  0.58075945  0.14428726  0.97902155     0.74960
O1657       O  0.61087433  0.11710638  0.65819603    -0.38490
O1658       O  0.61750890  0.16194186  0.65910990    -0.38440
O1659       O  0.59912869  0.14958902  0.95449837    -0.39140
O1660       O  0.55735391  0.13581571  0.96669190    -0.39210
C1661       C  0.58602064  0.16849939  0.77295525    -0.11490
C1662       C  0.56824392  0.14709984  0.78538302     0.05520
C1663       C  0.57207865  0.13642697  0.82357454    -0.06780
C1664       C  0.59012603  0.15042973  0.84986449    -0.07520
C1665       C  0.60483487  0.17413080  0.83834271    -0.02070
C1666       C  0.60425288  0.18210256  0.79883812     0.04750
N1667       N  0.62076711  0.20500196  0.78524425     0.67250
H1668       H  0.58499502  0.17568217  0.74301226     0.16150
H1669       H  0.59119838  0.14392237  0.88006275     0.15860
N1670       N  0.55769180  0.11207485  0.83638034     0.74960
O1671       O  0.64379257  0.21072969  0.80164587    -0.38490
O1672       O  0.61330275  0.21846732  0.75521038    -0.38440
O1673       O  0.55887833  0.08992528  0.81656014    -0.39140
O1674       O  0.54864612  0.11101795  0.87066698    -0.39210
C1675       C  0.61303739  0.32086630  0.58634061    -0.11490
C1676       C  0.61916197  0.32720518  0.54737156     0.05520
C1677       C  0.60944768  0.35304414  0.53228593    -0.06780
C1678       C  0.59102556  0.36941232  0.55427463    -0.07520
C1679       C  0.58242668  0.36114556  0.59139798    -0.02070
C1680       C  0.59462048  0.33701029  0.60827089     0.04750
N1681       N  0.58664533  0.32678226  0.64592891     0.67250
H1682       H  0.62035454  0.30138089  0.59853713     0.16150
H1683       H  0.58208873  0.38793104  0.54124906     0.15860
N1684       N  0.61647600  0.36251494  0.99398785     0.74960
O1685       O  0.60405744  0.31387355  0.66708094    -0.38490
O1686       O  0.56149218  0.32628940  0.65521685    -0.38440
O1687       O  0.61016734  0.34812084  0.96421403    -0.39140
O1688       O  0.62389286  0.38745984  0.98944546    -0.39210
C1689       C  0.60857988  0.33085699  0.81733257    -0.11490
C1690       C  0.59448620  0.32562260  0.85192749     0.05520
C1691       C  0.56722566  0.33583292  0.85616715    -0.06780
C1692       C  0.55368117  0.34780070  0.82373023    -0.07520
C1693       C  0.56667198  0.35035991  0.78786709    -0.02070
C1694       C  0.59507587  0.34338599  0.78496756     0.04750
N1695       N  0.60988801  0.34696354  0.74918877     0.67250
H1696       H  0.62954481  0.32319718  0.81460374     0.16150
H1697       H  0.53215679  0.35393070  0.82566688     0.15860
N1698       N  0.55252510  0.33318374  0.89226214     0.74960
O1699       O  0.63170432  0.33327116  0.74329548    -0.38490
O1700       O  0.60317347  0.36586358  0.72535539    -0.38440
O1701       O  0.56492739  0.32647769  0.92366246    -0.39140
O1702       O  0.52748269  0.34046021  0.89375204    -0.39210
C1703       C  0.51102648  0.27533819  0.95104484    -0.11490
C1704       C  0.52184686  0.24896702  0.95903584     0.05520
C1705       C  0.50494756  0.22516767  0.95785541    -0.06780
C1706       C  0.47703877  0.22845236  0.94831406    -0.07520
C1707       C  0.46614750  0.25477626  0.93971422    -0.02070
C1708       C  0.48330268  0.27843915  0.93982035     0.04750
N1709       N  0.47374686  0.30482531  0.92527804     0.67250
H1710       H  0.52481160  0.29310925  0.95002707     0.16150
H1711       H  0.46356768  0.21037425  0.94815107     0.15860
N1712       N  0.51582524  0.19781794  0.96584245     0.74960
O1713       O  0.48444178  0.32708956  0.93826682    -0.38490
O1714       O  0.45664235  0.30598475  0.89684282    -0.38440
O1715       O  0.53625614  0.19467238  0.98909289    -0.39140
O1716       O  0.50366339  0.17650140  0.95216786    -0.39210
C1717       C  0.51472037  0.97874061  0.74237817    -0.11490
C1718       C  0.49177981  0.97290546  0.76593569     0.05520
C1719       C  0.46812162  0.99013833  0.76195118    -0.06780
C1720       C  0.46812403  0.01228705  0.73514237    -0.07520
C1721       C  0.49133810  0.01866456  0.71266065    -0.02070
C1722       C  0.51493617  0.00134818  0.71605658     0.04750
N1723       N  0.53956012  0.00689200  0.69431900     0.67250
H1724       H  0.53267094  0.96529315  0.74407455     0.16150
H1725       H  0.45052445  0.02626409  0.73423887     0.15860
N1726       N  0.44464511  0.98680105  0.78658726     0.74960
O1727       O  0.56281195  0.99804209  0.70642850    -0.38490
O1728       O  0.53795420  0.01844836  0.66130735    -0.38440
O1729       O  0.44822638  0.98403066  0.82302572    -0.39140
O1730       O  0.42048759  0.99112744  0.77306603    -0.39210
C1731       C  0.51862702  0.50993061  0.75950782    -0.11490
C1732       C  0.49356624  0.51945611  0.77504168     0.05520
C1733       C  0.46902638  0.50431038  0.76556264    -0.06780
C1734       C  0.47018564  0.48085084  0.74089917    -0.07520
C1735       C  0.49528208  0.47126304  0.72555385    -0.02070
C1736       C  0.51978039  0.48652822  0.73479468     0.04750
N1737       N  0.54600411  0.47914188  0.71882375     0.67250
H1738       H  0.53762864  0.52139806  0.76531965     0.16150
H1739       H  0.45121226  0.46932806  0.73511005     0.15860
N1740       N  0.44276991  0.51183424  0.78126391     0.74960
O1741       O  0.54849761  0.47750117  0.68224578    -0.38490
O1742       O  0.56751410  0.47902080  0.74052499    -0.38440
O1743       O  0.42150294  0.51268554  0.75912785    -0.39140
O1744       O  0.43988239  0.51262723  0.81782145    -0.39210
C1745       C  0.45837699  0.76157670  0.78997085    -0.11490
C1746       C  0.46150651  0.77579121  0.82567412     0.05520
C1747       C  0.46089979  0.76085088  0.86112153    -0.06780
C1748       C  0.46199787  0.73191873  0.85962789    -0.07520
C1749       C  0.46349249  0.71789607  0.82375572    -0.02070
C1750       C  0.46014973  0.73276569  0.78844127     0.04750
N1751       N  0.46218475  0.71969824  0.75083458     0.67250
H1752       H  0.45807830  0.77284703  0.76260201     0.16150
H1753       H  0.46296156  0.72033880  0.88673423     0.15860
N1754       N  0.46034575  0.77455442  0.89854491     0.74960
O1755       O  0.44432498  0.72504886  0.72442829    -0.38490
O1756       O  0.48472857  0.70856242  0.74133413    -0.38440
O1757       O  0.44487429  0.79533326  0.90351970    -0.39140
O1758       O  0.47269339  0.76399938  0.92780543    -0.39210
C1759       C  0.38027558  0.82458368  0.92439965    -0.11490
C1760       C  0.38021819  0.82701413  0.96528725     0.05520
C1761       C  0.39613304  0.84881322  0.98300079    -0.06780
C1762       C  0.41298590  0.86596275  0.95971144    -0.07520
C1763       C  0.41415879  0.86237220  0.91902322    -0.02070
C1764       C  0.39658370  0.84203231  0.90114722     0.04750
N1765       N  0.39703242  0.83693617  0.85974210     0.67250
H1766       H  0.36846476  0.80794785  0.91046041     0.16150
H1767       H  0.42684459  0.88084258  0.97385754     0.15860
N1768       N  0.39767111  0.85232732  0.52469966     0.74960
O1769       O  0.39643333  0.81232228  0.84673372    -0.38490
O1770       O  0.39388311  0.85681114  0.83612961    -0.38440
O1771       O  0.40255625  0.83177246  0.54657743    -0.39140
O1772       O  0.39856719  0.87649362  0.53924038    -0.39210
C1773       C  0.40064679  0.83627213  0.72966927    -0.11490
C1774       C  0.41588881  0.85894633  0.71584765     0.05520
C1775       C  0.41474839  0.86539067  0.67557683    -0.06780
C1776       C  0.40000779  0.84752255  0.64984612    -0.07520
C1777       C  0.38708071  0.82334553  0.66333447    -0.02070
C1778       C  0.38648281  0.81809330  0.70389077     0.04750
N1779       N  0.37294193  0.79378405  0.71906487     0.67250
H1780       H  0.40168898  0.83141060  0.76056117     0.16150
H1781       H  0.40016430  0.85145127  0.61874991     0.15860
N1782       N  0.42911969  0.88918975  0.66034149     0.74960
O1783       O  0.38021247  0.78405906  0.75194453    -0.38490
O1784       O  0.35237358  0.78309516  0.70111322    -0.38440
O1785       O  0.43455315  0.90996047  0.68189996    -0.39140
O1786       O  0.43445568  0.89053938  0.62444426    -0.39210
C1787       C  0.39864816  0.64645952  0.98851962    -0.11490
C1788       C  0.37757041  0.66147926  0.96878117     0.05520
C1789       C  0.37453581  0.65810325  0.92778376    -0.06780
C1790       C  0.39368253  0.64141905  0.90767987    -0.07520
C1791       C  0.41635542  0.62864702  0.92698762    -0.02070
C1792       C  0.41833718  0.63047092  0.96825829     0.04750
N1793       N  0.44056175  0.61709885  0.98981218     0.67250
H1794       H  0.40113117  0.64904284  0.51988640     0.16150
H1795       H  0.39212316  0.64013414  0.87608084     0.15860
N1796       N  0.35291646  0.67223535  0.90602383     0.74960
O1797       O  0.44707930  0.62506835  0.02401880    -0.38490
O1798       O  0.45233937  0.59589428  0.97609450    -0.38440
O1799       O  0.33023966  0.67800743  0.92180885    -0.39140
O1800       O  0.35553679  0.67711006  0.87006314    -0.39210
C1801       C  0.40014192  0.64602321  0.65558172    -0.11490
C1802       C  0.38943344  0.67127673  0.66933890     0.05520
C1803       C  0.39061532  0.67722098  0.70987965    -0.06780
C1804       C  0.40386053  0.65822851  0.73516868    -0.07520
C1805       C  0.41666668  0.63414702  0.72099039    -0.02070
C1806       C  0.41412346  0.62742559  0.68082020     0.04750
N1807       N  0.42619063  0.60245374  0.66516748     0.67250
H1808       H  0.39904251  0.64162481  0.62449562     0.16150
H1809       H  0.40605985  0.66329851  0.76598026     0.15860
N1810       N  0.37952714  0.70264229  0.72566739     0.74960
O1811       O  0.43078789  0.60042912  0.62908888    -0.38490
O1812       O  0.43030115  0.58149897  0.68662186    -0.38440
O1813       O  0.36020698  0.71539680  0.70800485    -0.39140
O1814       O  0.38749524  0.71133451  0.75895266    -0.39210
C1815       C  0.61450814  0.64345574  0.95936797    -0.11490
C1816       C  0.62178344  0.67089704  0.94884449     0.05520
C1817       C  0.61187439  0.68087944  0.91229676    -0.06780
C1818       C  0.59188297  0.66523815  0.89086825    -0.07520
C1819       C  0.58201852  0.63943604  0.90408835    -0.02070
C1820       C  0.59464717  0.62760584  0.93777759     0.04750
N1821       N  0.58623321  0.60079582  0.95216341     0.67250
H1822       H  0.62237107  0.63542996  0.98698921     0.16150
H1823       H  0.58276533  0.67400426  0.86443885     0.15860
N1824       N  0.61996046  0.70773869  0.89814765     0.74960
O1825       O  0.59126012  0.59415821  0.98727462    -0.38490
O1826       O  0.57563952  0.58280400  0.92936459    -0.38440
O1827       O  0.64510156  0.71501475  0.89990909    -0.39140
O1828       O  0.60294262  0.72238267  0.87870764    -0.39210
C1829       C  0.60016722  0.65550108  0.67984250    -0.11490
C1830       C  0.59386780  0.68323312  0.67076070     0.05520
C1831       C  0.57302745  0.69723918  0.69121200    -0.06780
C1832       C  0.55882186  0.68313432  0.72004547    -0.07520
C1833       C  0.56376652  0.65488844  0.72814865    -0.02070
C1834       C  0.58572535  0.64125753  0.70904192     0.04750
N1835       N  0.59355800  0.61328149  0.71848688     0.67250
H1836       H  0.61641304  0.64497420  0.66425942     0.16150
H1837       H  0.54247153  0.69414295  0.73473098     0.15860
N1838       N  0.56447635  0.72505819  0.68111473     0.74960
O1839       O  0.59914097  0.59638618  0.69146963    -0.38490
O1840       O  0.60061088  0.60732897  0.75319463    -0.38440
O1841       O  0.56062188  0.73175355  0.64576109    -0.39140
O1842       O  0.55666789  0.74156078  0.70743504    -0.39210
C1843       C  0.61249936  0.81408268  0.91086664    -0.11490
C1844       C  0.61957521  0.82357569  0.94861244     0.05520
C1845       C  0.61031385  0.85043495  0.95991177    -0.06780
C1846       C  0.59097464  0.86486211  0.93589084    -0.07520
C1847       C  0.58111692  0.85364640  0.90034783    -0.02070
C1848       C  0.59331720  0.82854171  0.88644042     0.04750
N1849       N  0.58569284  0.81642500  0.84889408     0.67250
H1850       H  0.61932609  0.79355297  0.90222583     0.16150
H1851       H  0.58221475  0.88422481  0.94609138     0.15860
N1852       N  0.61870852  0.86218774  0.49719260     0.74960
O1853       O  0.60077840  0.79793393  0.83404637    -0.38490
O1854       O  0.56406926  0.82373987  0.83027012    -0.38440
O1855       O  0.64114890  0.85479866  0.51372421    -0.39140
O1856       O  0.60469454  0.88128622  0.51261441    -0.39210
C1857       C  0.54820812  0.84610260  0.67880126    -0.11490
C1858       C  0.56152715  0.85069913  0.71497719     0.05520
C1859       C  0.58938601  0.84210702  0.72091865    -0.06780
C1860       C  0.60216530  0.82709838  0.69077906    -0.07520
C1861       C  0.58777614  0.82037050  0.65576673    -0.02070
C1862       C  0.56052141  0.83054163  0.64966217     0.04750
N1863       N  0.54371195  0.82276241  0.61623187     0.67250
H1864       H  0.52678074  0.85241142  0.67449707     0.16150
H1865       H  0.62320050  0.81974974  0.69513907     0.15860
N1866       N  0.60447262  0.84694088  0.75726897     0.74960
O1867       O  0.53638145  0.79770324  0.61173594    -0.38490
O1868       O  0.53138751  0.84133188  0.59657076    -0.38440
O1869       O  0.59778949  0.86638763  0.78000658    -0.39140
O1870       O  0.62634340  0.83348997  0.76503461    -0.39210
C1871       C  0.50764132  0.76289739  0.51683071    -0.11490
C1872       C  0.52177436  0.73739280  0.51910821     0.05520
C1873       C  0.50670438  0.71217675  0.51977797    -0.06780
C1874       C  0.47807737  0.71329319  0.52343796    -0.07520
C1875       C  0.46478845  0.73895537  0.52555169    -0.02070
C1876       C  0.47917122  0.76401502  0.52058472     0.04750
N1877       N  0.46544093  0.79060071  0.52137654     0.67250
H1878       H  0.51886598  0.78235318  0.51481316     0.16150
H1879       H  0.46628824  0.69420412  0.52621157     0.15860
N1880       N  0.52008761  0.68559302  0.51842013     0.74960
O1881       O  0.47791161  0.81176081  0.53498693    -0.38490
O1882       O  0.44171888  0.79355332  0.50566806    -0.38440
O1883       O  0.51325213  0.66659477  0.54167900    -0.39140
O1884       O  0.53647950  0.68007627  0.49124224    -0.39210
C1885       C  0.01558255  0.99166652  0.97540716    -0.11490
C1886       C  0.99030148  0.97848476  0.96644351     0.05520
C1887       C  0.96623205  0.98708745  0.98619256    -0.06780
C1888       C  0.96818358  0.00866011  0.51407773    -0.07520
C1889       C  0.99349807  0.02178136  0.52309225    -0.02070
C1890       C  0.01756428  0.01312632  0.50338347     0.04750
N1891       N  0.04409836  0.02608682  0.51135272     0.67250
H1892       H  0.03426643  0.98393028  0.96219249     0.16150
H1893       H  0.94951668  0.01640466  0.52731751     0.15860
N1894       N  0.93977113  0.97392551  0.97845196     0.74960
O1895       O  0.06315736  0.02449612  0.48677507    -0.38490
O1896       O  0.04932613  0.03746694  0.54402526    -0.38440
O1897       O  0.93467142  0.96206001  0.94608643    -0.39140
O1898       O  0.92066622  0.97572602  0.00292984    -0.39210
C1899       C  0.02066770  0.50642553  0.97644904    -0.11490
C1900       C  0.99642045  0.51490479  0.95657143     0.05520
C1901       C  0.97134627  0.50066854  0.96353457    -0.06780
C1902       C  0.97119414  0.47887051  0.49103136    -0.07520
C1903       C  0.99525979  0.47119529  0.51244096    -0.02070
C1904       C  0.02034972  0.48540986  0.50484261     0.04750
N1905       N  0.04529292  0.48031976  0.52735874     0.67250
H1906       H  0.03953368  0.51836473  0.97294423     0.16150
H1907       H  0.95204845  0.46765890  0.49547418     0.15860
N1908       N  0.94571772  0.50887111  0.94442861     0.74960
O1909       O  0.06843937  0.48041117  0.51090403    -0.38490
O1910       O  0.04472468  0.48052257  0.56422772    -0.38440
O1911       O  0.94579714  0.52093913  0.91174456    -0.39140
O1912       O  0.92274627  0.50246908  0.95891470    -0.39210
C1913       C  0.97436559  0.73134068  0.93660356    -0.11490
C1914       C  0.99630969  0.71815949  0.91830815     0.05520
C1915       C  0.01971238  0.73314811  0.90633354    -0.06780
C1916       C  0.02058942  0.76159721  0.91373718    -0.07520
C1917       C  0.99879603  0.77494397  0.93270957    -0.02070
C1918       C  0.97561569  0.75952728  0.94503148     0.04750
N1919       N  0.95385150  0.77172183  0.96736116     0.67250
H1920       H  0.95704319  0.71922236  0.94696816     0.16150
H1921       H  0.03798875  0.77352429  0.90336010     0.15860
N1922       N  0.04226175  0.72005176  0.88627728     0.74960
O1923       O  0.92893660  0.76492282  0.96039344    -0.38490
O1924       O  0.95972962  0.78577801  0.99769502    -0.38440
O1925       O  0.03830371  0.69820309  0.86632350    -0.39140
O1926       O  0.06582037  0.73151216  0.88586299    -0.39210
C1927       C  0.74189321  0.73445140  0.59071732    -0.11490
C1928       C  0.72120025  0.75132725  0.60576187     0.05520
C1929       C  0.72607144  0.76479120  0.64258827    -0.06780
C1930       C  0.75130174  0.76081689  0.66318466    -0.07520
C1931       C  0.77210972  0.74424092  0.64780966    -0.02070
C1932       C  0.76702164  0.73036810  0.61137133     0.04750
N1933       N  0.78718362  0.71191498  0.59497691     0.67250
H1934       H  0.73796396  0.72325063  0.56360075     0.16150
H1935       H  0.75537819  0.77224164  0.69007761     0.15860
N1936       N  0.70602292  0.78333442  0.65896114     0.74960
O1937       O  0.80099286  0.69566133  0.61673875    -0.38490
O1938       O  0.78961465  0.71015774  0.55838543    -0.38440
O1939       O  0.70291521  0.78430149  0.69547985    -0.39140
O1940       O  0.69364826  0.80091241  0.63757866    -0.39210
C1941       C  0.89892651  0.63058806  0.81421260    -0.11490
C1942       C  0.92733845  0.63566287  0.82231926     0.05520
C1943       C  0.93826028  0.66203657  0.81281659    -0.06780
C1944       C  0.92081344  0.68226536  0.79641042    -0.07520
C1945       C  0.89295687  0.67701205  0.78603862    -0.02070
C1946       C  0.88168362  0.65055053  0.79494743     0.04750
N1947       N  0.85335175  0.64347347  0.78490153     0.67250
H1948       H  0.89008627  0.61107072  0.82358846     0.16150
H1949       H  0.92970000  0.70225813  0.78918379     0.15860
N1950       N  0.96685498  0.66921145  0.82076049     0.74960
O1951       O  0.84540674  0.61844546  0.78556308    -0.38490
O1952       O  0.83567662  0.66214867  0.77761054    -0.38440
O1953       O  0.98582993  0.65184733  0.81455350    -0.39140
O1954       O  0.97350668  0.69412796  0.82819558    -0.39210
C1955       C  0.88626954  0.67729194  0.54353040    -0.11490
C1956       C  0.89331694  0.67433115  0.58315163     0.05520
C1957       C  0.90914550  0.65100881  0.59548934    -0.06780
C1958       C  0.92207724  0.63461855  0.56729153    -0.07520
C1959       C  0.91827595  0.64026558  0.52744450    -0.02070
C1960       C  0.89799296  0.65998223  0.51544381     0.04750
N1961       N  0.89012066  0.66345308  0.97490927     0.67250
H1962       H  0.87281469  0.69411808  0.53417419     0.16150
H1963       H  0.93644669  0.61854258  0.57655148     0.15860
N1964       N  0.91273437  0.64419620  0.63623192     0.74960
O1965       O  0.88789370  0.64252816  0.95263013    -0.38490
O1966       O  0.88257475  0.68693953  0.96224543    -0.38440
O1967       O  0.89286204  0.64716407  0.65924500    -0.39140
O1968       O  0.93435267  0.63188167  0.64827518    -0.39210
C1969       C  0.90046651  0.84735825  0.76085307    -0.11490
C1970       C  0.88089751  0.82958841  0.77855377     0.05520
C1971       C  0.87855677  0.83134352  0.81945329    -0.06780
C1972       C  0.89693950  0.84848578  0.84134525    -0.07520
C1973       C  0.91860097  0.86374899  0.82408075    -0.02070
C1974       C  0.91920678  0.86444957  0.78277134     0.04750
N1975       N  0.93898739  0.88128303  0.76252795     0.67250
H1976       H  0.90207040  0.84705030  0.72935008     0.16150
H1977       H  0.89566670  0.84807670  0.87293661     0.15860
N1978       N  0.85805762  0.81573010  0.83959380     0.74960
O1979       O  0.94438693  0.87607304  0.72733186    -0.38490
O1980       O  0.94758071  0.90388451  0.77725153    -0.38440
O1981       O  0.86062995  0.78973652  0.84289001    -0.39140
O1982       O  0.84134362  0.82832665  0.86125515    -0.39210
C1983       C  0.90190407  0.83541132  0.50951324    -0.11490
C1984       C  0.91733455  0.85868602  0.52234644     0.05520
C1985       C  0.91756886  0.86612922  0.56224789    -0.06780
C1986       C  0.90569573  0.84789385  0.58884906    -0.07520
C1987       C  0.89368211  0.82253546  0.57650992    -0.02070
C1988       C  0.89072668  0.81682009  0.53614085     0.04750
N1989       N  0.87931190  0.79110216  0.52162207     0.67250
H1990       H  0.90152569  0.82953495  0.97887908     0.16150
H1991       H  0.90665471  0.85317488  0.61966581     0.15860
N1992       N  0.93049362  0.89143192  0.57619470     0.74960
O1993       O  0.86216788  0.79137043  0.49321159    -0.38490
O1994       O  0.89052717  0.76837894  0.53129697    -0.38440
O1995       O  0.92995113  0.91303471  0.55534471    -0.39140
O1996       O  0.94016615  0.89306177  0.61073598    -0.39210
C1997       C  0.24553489  0.75838043  0.59019947    -0.11490
C1998       C  0.26853530  0.74485467  0.60675806     0.05520
C1999       C  0.26636047  0.73251366  0.64418190    -0.06780
C2000       C  0.24099209  0.73347255  0.66353477    -0.07520
C2001       C  0.21804925  0.74722087  0.64715046    -0.02070
C2002       C  0.22006187  0.75929832  0.60944453     0.04750
N2003       N  0.19643171  0.77152234  0.58951824     0.67250
H2004       H  0.24730559  0.76760875  0.56153408     0.16150
H2005       H  0.23940528  0.72432539  0.69228618     0.15860
N2006       N  0.29003302  0.72045034  0.66396721     0.74960
O2007       O  0.20001137  0.78879922  0.56240006    -0.38490
O2008       O  0.17229063  0.76231005  0.59478186    -0.38440
O2009       O  0.31339727  0.73221705  0.66274291    -0.39140
O2010       O  0.28689366  0.70041479  0.68718921    -0.39210
C2011       C  0.09562557  0.87530032  0.82187440    -0.11490
C2012       C  0.06703743  0.86889236  0.82145294     0.05520
C2013       C  0.05814969  0.84452705  0.80183679    -0.06780
C2014       C  0.07759189  0.82663178  0.78537822    -0.07520
C2015       C  0.10620195  0.83202372  0.78716783    -0.02070
C2016       C  0.11544303  0.85748028  0.80430513     0.04750
N2017       N  0.14441438  0.86499812  0.80616403     0.67250
H2018       H  0.10271276  0.89323733  0.83856326     0.16150
H2019       H  0.07017014  0.80767276  0.77176117     0.15860
N2020       N  0.02977483  0.83562457  0.80345527     0.74960
O2021       O  0.15164165  0.88938183  0.81578943    -0.38490
O2022       O  0.16302045  0.84746543  0.79880110    -0.38440
O2023       O  0.01035329  0.85231757  0.79536122    -0.39140
O2024       O  0.02406055  0.81167477  0.81595740    -0.39210
C2025       C  0.09397077  0.85031825  0.53850047    -0.11490
C2026       C  0.06726181  0.86052888  0.54598085     0.05520
C2027       C  0.05677116  0.85779278  0.58405857    -0.06780
C2028       C  0.07185661  0.84279793  0.61210092    -0.07520
C2029       C  0.09700388  0.83003041  0.60317174    -0.02070
C2030       C  0.10908758  0.83518023  0.56678508     0.04750
N2031       N  0.13562682  0.82389223  0.55728982     0.67250
H2032       H  0.10257612  0.85293614  0.00978854     0.16150
H2033       H  0.06259350  0.83895846  0.64016343     0.15860
N2034       N  0.02954699  0.86700177  0.59369827     0.74960
O2035       O  0.14032933  0.81608167  0.52280302    -0.38490
O2036       O  0.15558825  0.82570352  0.58161732    -0.38440
O2037       O  0.00866695  0.85384737  0.58047945    -0.39140
O2038       O  0.02664253  0.88352401  0.62205367    -0.39210
C2039       C  0.08935322  0.65311051  0.59964956    -0.11490
C2040       C  0.08733181  0.68205744  0.59424036     0.05520
C2041       C  0.07172808  0.69251674  0.56221151    -0.06780
C2042       C  0.05714653  0.67400110  0.53804615    -0.07520
C2043       C  0.05840052  0.64518499  0.54375818    -0.02070
C2044       C  0.07515816  0.63421195  0.57447760     0.04750
N2045       N  0.07834928  0.60464667  0.58043337     0.67250
H2046       H  0.10132743  0.64533049  0.62441145     0.16150
H2047       H  0.04509074  0.68220976  0.51356394     0.15860
N2048       N  0.07097905  0.72175514  0.55323103     0.74960
O2049       O  0.09632578  0.59564724  0.60458207    -0.38490
O2050       O  0.06335800  0.58727326  0.56196533    -0.38440
O2051       O  0.09278781  0.73625415  0.55605398    -0.39140
O2052       O  0.04947654  0.73235155  0.53780594    -0.39210
C2053       C  0.09088603  0.64778427  0.76901293    -0.11490
C2054       C  0.11125596  0.66451571  0.78788496     0.05520
C2055       C  0.11616037  0.66085943  0.82832149    -0.06780
C2056       C  0.09901536  0.64268964  0.84913662    -0.07520
C2057       C  0.07618627  0.62862766  0.83137187    -0.02070
C2058       C  0.07332171  0.62986538  0.79013287     0.04750
N2059       N  0.05186075  0.61466430  0.76953218     0.67250
H2060       H  0.08719668  0.65026812  0.73787150     0.16150
H2061       H  0.10225873  0.64115587  0.88048934     0.15860
N2062       N  0.13753541  0.67634665  0.84898120     0.74960
O2063       O  0.04030486  0.62487869  0.73940888    -0.38490
O2064       O  0.04764683  0.58941958  0.77744737    -0.38440
O2065       O  0.13564527  0.68121038  0.88511307    -0.39140
O2066       O  0.15929901  0.68357981  0.83190292    -0.39210
C2067       C  0.01392590  0.78865217  0.73609031    -0.11490
C2068       C  0.02514955  0.76323043  0.74824927     0.05520
C2069       C  0.00802370  0.74076756  0.75778299    -0.06780
C2070       C  0.97961543  0.74380463  0.75185263    -0.07520
C2071       C  0.96869100  0.76790488  0.73445686    -0.02070
C2072       C  0.98572337  0.79115525  0.72768678     0.04750
N2073       N  0.97597500  0.81561946  0.70748413     0.67250
H2074       H  0.02772432  0.80529162  0.72759807     0.16150
H2075       H  0.96622195  0.72612966  0.75682476     0.15860
N2076       N  0.01920708  0.71379445  0.76723234     0.74960
O2077       O  0.98807264  0.83859384  0.71351275    -0.38490
O2078       O  0.95953335  0.81347733  0.67839792    -0.38440
O2079       O  0.04167380  0.71150468  0.78651038    -0.39140
O2080       O  0.00681248  0.69201285  0.75568025    -0.39210
loop_ 
_geom_bond_atom_site_label_1 
_geom_bond_atom_site_label_2 
_geom_bond_distance 
_geom_bond_site_symmetry_2 
_ccdc_geom_bond_type 
Zn1           O5   1.913       .  S
Zn1           O6   1.924       .  S
Zn1          O10   1.970       .  S
Zn1          O17   1.976       .  S
Zn2           O5   1.965       .  S
Zn2           O7   2.028       .  S
Zn2           O9   1.957       .  S
Zn2          O13   2.022       .  S
Zn3           O5   1.948       .  S
Zn3           O8   2.032       .  S
Zn3          O11   2.067       .  S
Zn3          O14   2.046       .  S
Zn4           O5   1.953       .  S
Zn4          O12   2.041       .  S
Zn4          O15   2.073       .  S
Zn4          O16   2.027       .  S
O6           C18   1.263       .  A
O7           C19   1.277       .  A
O8           C20   1.272       .  A
O9           C18   1.262       .  A
O10          C20   1.268       .  A
O11          C19   1.279       .  A
O12          C21   1.284       .  A
O13          C22   1.277       .  A
O14          C21   1.284       .  A
O15          C22   1.278       .  A
O16          C23   1.269       .  A
O17          C23   1.267       .  A
C18        C1028   1.435       .  S
C19        C1014   1.496       .  S
C20        C1000   1.474       .  S
C21         C961   1.480       .  S
C22         C975   1.500       .  S
C23         C989   1.471       .  S
Zn24         O28   1.878       .  S
Zn24         O29   1.938       .  S
Zn24         O33   1.957       .  S
Zn24         O40   1.920       .  S
Zn25         O28   1.906       .  S
Zn25         O30   1.949       .  S
Zn25         O32   1.975       .  S
Zn25         O36   1.955       .  S
Zn26         O28   1.904       .  S
Zn26         O31   2.027       .  S
Zn26         O34   2.017       .  S
Zn26         O37   1.906       .  S
Zn27         O28   1.966       .  S
Zn27         O35   2.152       .  S
Zn27         O38   2.158       .  S
Zn27         O39   2.150       .  S
O29          C41   1.268       .  A
O30          C42   1.266       .  A
O31          C43   1.272       .  A
O32          C41   1.267       .  A
O33          C43   1.264       .  A
O34          C42   1.272       .  A
O35          C44   1.297       .  A
O36          C45   1.261       .  A
O37          C44   1.266       .  A
O38          C45   1.286       .  A
O39          C46   1.289       .  A
O40          C46   1.262       .  A
C41        C1031   1.444       .  S
C42         C947   1.473       .  S
C43         C916   1.475       .  S
C44         C891   1.485       .  S
C45         C930   1.513       .  S
C46         C905   1.494       .  S
Zn47         O51   1.962       .  S
Zn47         O52   2.156   1_655  S
Zn47         O56   2.132       .  S
Zn47         O63   2.127       .  S
Zn48         O51   1.891   1_455  S
Zn48         O53   1.937       .  S
Zn48         O55   1.927       .  S
Zn48         O59   1.956       .  S
Zn49         O51   1.899       .  S
Zn49         O54   1.956       .  S
Zn49         O57   1.942       .  S
Zn49         O60   1.935       .  S
Zn50         O51   1.933       .  S
Zn50         O62   1.948       .  S
Zn50       O1098   2.045       .  S
Zn50       O1101   2.052   1_655  S
O52          C64   1.287       .  A
O53          C65   1.266   1_455  A
O54          C66   1.259       .  A
O55          C64   1.261       .  A
O56          C66   1.286       .  A
O57          C65   1.267       .  A
O58       Zn1090   2.045   1_554  S
O58          C67   1.273   1_554  A
O59        C1108   1.263       .  A
O60        C1107   1.260       .  A
O61       Zn1090   2.052   1_454  S
O61          C68   1.274       .  A
O62          C69   1.274       .  A
O63          C69   1.296       .  A
C64        C1017   1.509       .  S
C65         C874   1.434       .  S
C66         C902   1.489       .  S
C67        O1100   1.260       .  A
C67         C919   1.476   1_556  S
C68        O1099   1.263   1_554  A
C68        C1003   1.467       .  S
C69         C860   1.472       .  S
Zn70         O74   1.894       .  S
Zn70         O75   1.923       .  S
Zn70         O79   1.966       .  S
Zn70         O86   1.919       .  S
Zn71         O74   1.956       .  S
Zn71         O76   2.142       .  S
Zn71         O78   2.178       .  S
Zn71         O82   2.151   1_655  S
Zn72         O74   1.922       .  S
Zn72         O80   1.917       .  S
Zn72       O1117   2.000       .  S
Zn72       O1123   2.009   1_655  S
Zn73         O74   1.919   1_455  S
Zn73         O81   1.983       .  S
Zn73         O84   1.941       .  S
Zn73         O85   1.961       .  S
O75          C87   1.260       .  A
O76          C88   1.296       .  A
O77       Zn1112   2.000   1_554  S
O77          C89   1.269   1_554  A
O78          C87   1.291       .  A
O79        C1129   1.263       .  A
O80          C88   1.267       .  A
O81        C1130   1.267       .  A
O82          C91   1.292       .  A
O83       Zn1112   2.009   1_454  S
O83          C90   1.269       .  A
O84          C91   1.265       .  A
O85          C92   1.268   1_455  A
O86          C92   1.263       .  A
C87         C933   1.507       .  S
C88         C846   1.472       .  S
C89        O1119   1.263       .  A
C89         C944   1.470   1_556  S
C90        O1121   1.267   1_554  A
C90         C986   1.482       .  S
C91         C972   1.488       .  S
C92         C877   1.454       .  S
Zn93         O97   1.974       .  S
Zn93         O98   2.148       .  S
Zn93       O1142   2.157   1_554  S
Zn93       O1149   2.138   1_554  S
Zn94         O97   1.938       .  S
Zn94         O99   2.017       .  S
Zn94        O101   1.921       .  S
Zn94        O105   2.005       .  S
Zn95         O97   1.907       .  S
Zn95        O100   1.926       .  S
Zn95        O103   1.958       .  S
Zn95        O106   1.916       .  S
Zn96         O97   1.953       .  S
Zn96        O104   1.968       .  S
Zn96        O107   1.994       .  S
Zn96        O108   1.944       .  S
O98         C110   1.297       .  A
O99         C111   1.269       .  A
O100       C1152   1.260   1_554  A
O101        C110   1.267       .  A
O102      Zn1133   2.157       .  S
O102        C112   1.288       .  A
O103        C111   1.263       .  A
O104        C113   1.266       .  A
O105        C114   1.269       .  A
O106        C113   1.263       .  A
O107        C114   1.265       .  A
O108       C1155   1.265   1_554  A
O109      Zn1133   2.138       .  S
O109        C115   1.288       .  A
C110        C888   1.487       .  S
C111        C821   1.480       .  S
C112       O1140   1.260       .  A
C112        C804   1.498       .  S
C113        C832   1.459       .  S
C114        C790   1.465       .  S
C115       O1148   1.265       .  A
C115        C776   1.501       .  S
Zn116       O120   1.947       .  S
Zn116       O121   2.037       .  S
Zn116       O125   2.034       .  S
Zn116       O132   2.076       .  S
Zn117       O120   1.963       .  S
Zn117       O122   2.042       .  S
Zn117       O124   2.051       .  S
Zn117       O128   2.097       .  S
Zn118       O120   1.942       .  S
Zn118       O123   2.006       .  S
Zn118       O126   1.993       .  S
Zn118       O129   1.958       .  S
Zn119       O120   1.956       .  S
Zn119       O127   1.935       .  S
Zn119      O1170   2.006   1_554  S
Zn119      O1171   2.011   1_554  S
O121        C133   1.284       .  A
O122        C134   1.273       .  A
O123        C135   1.269       .  A
O124        C133   1.285       .  A
O125        C135   1.271       .  A
O126        C134   1.269       .  A
O127        C136   1.262       .  A
O128       C1177   1.282   1_554  A
O129        C136   1.269       .  A
O130      Zn1159   2.006       .  S
O130        C137   1.271       .  A
O131      Zn1159   2.011       .  S
O131        C138   1.272       .  A
O132       C1178   1.278   1_554  A
C133        C958   1.481       .  S
C134        C737   1.473       .  S
C135        C762   1.476       .  S
C136        C835   1.427       .  S
C137       O1168   1.282       .  A
C137        C720   1.501       .  S
C138       O1172   1.278       .  A
C138        C748   1.498       .  S
Zn139       O143   1.928       .  S
Zn139       O144   2.056       .  S
Zn139       O148   2.054       .  S
Zn139       O155   2.069       .  S
Zn140       O143   1.942       .  S
Zn140       O145   2.059       .  S
Zn140       O147   2.050       .  S
Zn140       O151   2.082       .  S
Zn141       O143   1.897       .  S
Zn141       O146   1.988       .  S
Zn141       O149   1.948       .  S
Zn141       O152   1.957       .  S
Zn142       O143   1.908       .  S
Zn142       O150   1.978       .  S
Zn142       O153   2.027       .  S
Zn142       O154   2.036       .  S
O144        C156   1.286       .  A
O145        C157   1.273       .  A
O146        C158   1.264       .  A
O147        C156   1.287       .  A
O148        C158   1.271       .  A
O149        C157   1.267       .  A
O150        C159   1.271       .  A
O151        C160   1.284       .  A
O152        C159   1.265       .  A
O153        C160   1.277       .  A
O154        C161   1.278       .  A
O155        C161   1.282       .  A
C156        C692   1.504       .  S
C157        C793   1.489       .  S
C158        C765   1.476       .  S
C159        C709   1.459       .  S
C160        C779   1.494       .  S
C161        C751   1.496       .  S
Zn162       O166   1.908       .  S
Zn162       O167   1.964       .  S
Zn162       O171   1.992       .  S
Zn162       O178   1.958       .  S
Zn163       O166   1.946       .  S
Zn163       O168   2.056       .  S
Zn163       O170   2.033       .  S
Zn163       O174   2.101       .  S
Zn164       O166   1.932       .  S
Zn164       O169   2.044       .  S
Zn164       O172   2.062       .  S
Zn164       O175   2.078       .  S
Zn165       O166   1.920       .  S
Zn165       O173   2.030       .  S
Zn165       O176   2.025       .  S
Zn165       O177   1.973       .  S
O167        C179   1.268       .  A
O168        C180   1.287       .  A
O169        C181   1.270       .  A
O170        C179   1.271       .  A
O171        C181   1.265       .  A
O172        C180   1.287       .  A
O173        C182   1.277       .  A
O174        C183   1.286       .  A
O175        C182   1.283       .  A
O176        C183   1.277       .  A
O177        C184   1.268       .  A
O178        C184   1.267       .  A
C179        C818   1.467       .  S
C180        C678   1.505       .  S
C181        C734   1.474       .  S
C182        C723   1.499       .  S
C183        C807   1.497       .  S
C184        C706   1.465       .  S
Zn185       O189   1.919       .  S
Zn185       O190   1.967       .  S
Zn185      O1234   1.992       .  S
Zn185      O1241   2.021       .  S
Zn186       O189   1.907       .  S
Zn186       O191   1.963       .  S
Zn186       O193   1.939       .  S
Zn186       O197   1.950       .  S
Zn187       O189   1.958       .  S
Zn187       O192   2.105       .  S
Zn187       O195   2.055       .  S
Zn187       O198   2.057       .  S
Zn188       O189   1.959       .  S
Zn188       O196   2.060       .  S
Zn188       O199   2.033       .  S
Zn188       O200   2.091       .  S
O190        C202   1.263       .  A
O191        C203   1.265       .  A
O192       C1244   1.285       .  A
O193        C202   1.263       .  A
O194      Zn1225   1.992   1_554  S
O194        C204   1.275       .  A
O195        C203   1.273       .  A
O196        C205   1.287       .  A
O197        C206   1.264       .  A
O198        C205   1.286       .  A
O199        C206   1.269       .  A
O200       C1247   1.284       .  A
O201      Zn1225   2.021   1_554  S
O201        C207   1.274       .  A
C202        C664   1.432       .  S
C203        C650   1.471       .  S
C204       O1232   1.285   1_554  A
C204        C636   1.505       .  S
C205        C597   1.498       .  S
C206        C625   1.464       .  S
C207       O1240   1.284   1_554  A
C207        C608   1.496       .  S
Zn208       O212   1.869       .  S
Zn208       O213   1.929       .  S
Zn208       O217   1.939       .  S
Zn208       O224   1.925       .  S
Zn209       O212   1.905       .  S
Zn209       O214   1.956       .  S
Zn209       O216   1.986       .  S
Zn209       O220   1.964       .  S
Zn210       O212   1.919       .  S
Zn210       O215   2.046       .  S
Zn210       O218   2.024       .  S
Zn210       O221   1.923       .  S
Zn211       O212   1.969       .  S
Zn211       O219   2.168       .  S
Zn211      O1262   2.175       .  S
Zn211      O1263   2.161       .  S
O213        C225   1.262       .  A
O214        C226   1.264       .  A
O215        C227   1.273       .  A
O216        C225   1.270       .  A
O217        C227   1.259       .  A
O218        C226   1.272       .  A
O219        C228   1.300       .  A
O220       C1269   1.261       .  A
O221        C228   1.271       .  A
O222      Zn1251   2.176   1_554  S
O222        C229   1.288       .  A
O223      Zn1251   2.161   1_554  S
O223        C230   1.291       .  A
O224       C1270   1.264       .  A
C225        C667   1.444       .  S
C226        C552   1.467       .  S
C227        C583   1.484       .  S
C228        C524   1.487       .  S
C229       O1260   1.261   1_554  A
C229        C538   1.515       .  S
C230       O1264   1.264   1_554  A
C230        C569   1.500       .  S
Zn231       O235   1.916       .  S
Zn231       O236   1.963       .  S
Zn231       O240   1.973       .  S
Zn231       O247   1.998       .  S
Zn232       O235   1.925       .  S
Zn232       O237   1.965       .  S
Zn232       O239   2.055       .  S
Zn232       O243   2.063       .  S
Zn233       O235   1.959       .  S
Zn233       O238   2.125       .  S
Zn233       O241   2.147       .  S
Zn233       O244   2.154       .  S
Zn234       O235   1.877       .  S
Zn234       O242   1.932       .  S
Zn234       O245   1.925       .  S
Zn234       O246   1.949       .  S
O236        C248   1.267       .  A
O237        C249   1.273       .  A
O238        C250   1.285       .  A
O239        C248   1.278       .  A
O240        C250   1.260       .  A
O241        C249   1.296       .  A
O242        C251   1.260       .  A
O243        C252   1.276       .  A
O244        C251   1.288       .  A
O245        C252   1.265       .  A
O246        C253   1.265       .  A
O247        C253   1.272       .  A
C248        C580   1.485       .  S
C249        C681   1.488       .  S
C250        C566   1.494       .  S
C251        C611   1.510       .  S
C252        C622   1.488       .  S
C253        C510   1.468       .  S
Zn254       O258   1.959       .  S
Zn254       O259   2.049       .  S
Zn254       O263   2.016       .  S
Zn254       O270   2.068       .  S
Zn255       O258   1.942       .  S
Zn255       O260   2.018       .  S
Zn255       O262   2.039       .  S
Zn255       O266   2.061       .  S
Zn256       O258   1.932       .  S
Zn256       O261   1.988       .  S
Zn256       O264   2.011       .  S
Zn256       O267   1.983       .  S
Zn257       O258   1.951       .  S
Zn257       O265   1.968       .  S
Zn257       O268   2.037       .  S
Zn257       O269   2.017       .  S
O259        C271   1.284       .  A
O260        C272   1.270       .  A
O261        C273   1.270       .  A
O262        C271   1.282       .  A
O263        C273   1.272       .  A
O264        C272   1.273       .  A
O265        C274   1.263       .  A
O266        C275   1.279       .  A
O267        C274   1.270       .  A
O268        C275   1.277       .  A
O269        C276   1.279       .  A
O270        C276   1.276       .  A
C271        C695   1.503       .  S
C272        C653   1.473       .  S
C273        C555   1.472       .  S
C274        C513   1.448       .  S
C275        C639   1.495       .  S
C276        C541   1.509       .  S
Zn277       O281   1.937       .  S
Zn277       O282   2.029       .  S
Zn277       O286   2.099       .  S
Zn277       O293   2.002       .  S
Zn278       O281   1.951       .  S
Zn278       O283   2.100       .  S
Zn278       O285   2.056       .  S
Zn278       O289   2.045       .  S
Zn279       O281   1.909       .  S
Zn279       O284   1.997       .  S
Zn279       O287   2.001       .  S
Zn279       O290   1.953       .  S
Zn280       O281   1.920       .  S
Zn280       O288   1.977       .  S
Zn280       O291   1.983       .  S
Zn280       O292   1.989       .  S
O282        C294   1.284       .  A
O283        C295   1.281       .  A
O284        C296   1.270       .  A
O285        C294   1.286       .  A
O286        C296   1.282       .  A
O287        C295   1.271       .  A
O288        C297   1.268       .  A
O289        C298   1.274       .  A
O290        C297   1.263       .  A
O291        C298   1.270       .  A
O292        C299   1.270       .  A
O293        C299   1.268       .  A
C294        C527   1.492       .  S
C295        C443   1.503       .  S
C296        C482   1.495       .  S
C297        C499   1.450       .  S
C298        C454   1.477       .  S
C299        C471   1.457       .  S
Zn300       O304   1.970       .  S
Zn300       O305   2.173       .  S
Zn300       O309   2.150       .  S
Zn300       O316   2.159       .  S
Zn301       O304   1.918       .  S
Zn301       O306   2.015       .  S
Zn301       O308   1.926       .  S
Zn301       O312   2.016       .  S
Zn302       O304   1.891       .  S
Zn302       O307   1.942       .  S
Zn302       O310   1.967       .  S
Zn302       O313   1.936       .  S
Zn303       O304   1.940       .  S
Zn303       O311   1.997       .  S
Zn303       O314   1.975       .  S
Zn303       O315   1.971       .  S
O305        C317   1.298       .  A
O306        C318   1.270       .  A
O307        C319   1.265       .  A
O308        C317   1.268       .  A
O309        C319   1.289       .  A
O310        C318   1.267       .  A
O311        C320   1.269       .  A
O312        C321   1.271       .  A
O313        C320   1.267       .  A
O314        C321   1.268       .  A
O315        C322   1.267       .  A
O316        C322   1.288       .  A
C317        C594   1.496       .  S
C318        C401   1.471       .  S
C319        C387   1.510       .  S
C320        C496   1.450       .  S
C321        C426   1.480       .  S
C322        C412   1.518       .  S
Zn323       O327   1.959       .  S
Zn323       O328   2.122   1_655  S
Zn323       O332   2.138       .  S
Zn323       O339   2.136       .  S
Zn324       O327   1.935   1_455  S
Zn324       O329   1.966       .  S
Zn324       O331   1.967       .  S
Zn324       O335   1.986       .  S
Zn325       O327   1.925       .  S
Zn325       O330   1.915       .  S
Zn325      O1373   2.015   1_654  S
Zn325      O1376   2.021   1_554  S
Zn326       O327   1.893       .  S
Zn326       O334   1.957       .  S
Zn326       O337   1.930       .  S
Zn326       O338   1.941       .  S
O328        C340   1.285       .  A
O329       C1381   1.266   1_554  A
O330        C342   1.265       .  A
O331        C340   1.264       .  A
O332        C342   1.294       .  A
O333      Zn1365   2.015   1_455  S
O333        C341   1.273       .  A
O334       C1383   1.265   1_554  A
O335        C344   1.268       .  A
O336      Zn1365   2.021       .  S
O336        C343   1.271       .  A
O337        C344   1.267   1_655  A
O338        C345   1.263       .  A
O339        C345   1.288       .  A
C340        C485   1.502       .  S
C341       O1369   1.266       .  A
C341        C468   1.480       .  S
C342        C849   1.473       .  S
C343       O1374   1.265       .  A
C343        C398   1.472       .  S
C344        C370   1.448       .  S
C345        C384   1.497       .  S
Zn346       O350   1.927       .  S
Zn346       O351   1.944       .  S
Zn346      O1395   1.986   1_654  S
Zn346      O1402   1.977       .  S
Zn347       O350   1.938       .  S
Zn347       O352   2.021   1_655  S
Zn347       O354   1.954   1_655  S
Zn347       O358   2.003       .  S
Zn348       O350   1.958   1_455  S
Zn348       O353   2.039       .  S
Zn348       O356   2.079       .  S
Zn348       O359   2.020       .  S
Zn349       O350   1.957       .  S
Zn349       O357   2.058       .  S
Zn349       O360   2.104       .  S
Zn349       O361   2.013       .  S
O351        C363   1.265   1_655  A
O352        C364   1.276       .  A
O353       C1405   1.271   1_554  A
O354        C363   1.261       .  A
O355      Zn1386   1.986   1_455  S
O355        C365   1.268       .  A
O356        C364   1.278       .  A
O357        C366   1.287       .  A
O358        C367   1.270       .  A
O359        C366   1.281   1_455  A
O360        C367   1.283       .  A
O361       C1408   1.269       .  A
O362      Zn1386   1.977       .  S
O362        C368   1.269       .  A
C363        C373   1.436       .  S
C364        C440   1.497       .  S
C365       O1393   1.271       .  A
C365        C457   1.472       .  S
C366        C863   1.496       .  S
C367        C415   1.500       .  S
C368       O1401   1.269       .  A
C368        C429   1.467       .  S
C369        C370   1.403   1_655  A
C369        C374   1.388       .  A
C369        H376   1.085       .  S
C370        C371   1.409       .  A
C371        C372   1.394       .  A
C371        N378   1.437       .  S
C372        C373   1.400       .  A
C372        H377   1.085       .  S
C373        C374   1.403   1_455  A
C374        N375   1.440       .  S
N375        O379   1.263       .  A
N375        O380   1.262       .  A
N378        O381   1.263       .  A
N378        O382   1.262       .  A
C383        C384   1.415       .  A
C383        C388   1.415       .  A
C383        H390   1.083       .  S
C384        C385   1.410       .  A
C385        C386   1.408       .  A
C385        N392   1.437       .  S
C386        C387   1.418       .  A
C386        H391   1.081       .  S
C387        C388   1.413       .  A
C388        N389   1.436       .  S
N389        O393   1.263       .  A
N389        O394   1.262       .  A
N392        O395   1.263       .  A
N392        O396   1.262       .  A
C397        C398   1.400       .  A
C397        C402   1.399       .  A
C397        H404   1.083       .  S
C398        C399   1.418       .  A
C399        C400   1.400       .  A
C399       N1446   1.440       .  S
C400        C401   1.399       .  A
C400        H405   1.083       .  S
C401        C402   1.415       .  A
C402        N403   1.439       .  S
N403        O407   1.263       .  A
N403        O408   1.263       .  A
N406       C1439   1.440   1_554  S
N406        O409   1.263       .  A
N406        O410   1.263       .  A
C411        C412   1.416       .  A
C411        C416   1.411       .  A
C411        H418   1.083       .  S
C412        C413   1.420       .  A
C413        C414   1.423       .  A
C413        N420   1.438       .  S
C414        C415   1.412       .  A
C414        H419   1.084       .  S
C415        C416   1.412       .  A
C416        N417   1.442       .  S
N417        O421   1.263       .  A
N417        O422   1.263       .  A
N420        O423   1.262       .  A
N420        O424   1.263       .  A
C425        C426   1.409       .  A
C425        C430   1.403       .  A
C425        H432   1.084       .  S
C426        C427   1.414       .  A
C427        C428   1.395       .  A
C427        N434   1.433       .  S
C428        C429   1.401       .  A
C428        H433   1.085       .  S
C429        C430   1.412       .  A
C430        N431   1.440       .  S
N431        O435   1.263       .  A
N431        O436   1.262       .  A
N434        O437   1.263       .  A
N434        O438   1.262       .  A
C439        C440   1.394       .  A
C439        C444   1.391       .  A
C439        H446   1.063       .  S
C440        C441   1.421       .  A
C441        C442   1.431       .  A
C441        N448   1.441       .  S
C442        C443   1.416       .  A
C442        H447   1.082       .  S
C443        C444   1.416       .  A
C444        N445   1.438       .  S
N445        O449   1.263       .  A
N445        O450   1.262       .  A
N448        O451   1.262       .  A
N448        O452   1.263       .  A
C453        C454   1.406       .  A
C453        C458   1.413       .  A
C453        H460   1.083       .  S
C454        C455   1.412       .  A
C455        C456   1.400       .  A
C455        N462   1.442       .  S
C456        C457   1.402       .  A
C456        H461   1.085       .  S
C457        C458   1.419       .  A
C458        N459   1.447       .  S
N459        O463   1.263       .  A
N459        O464   1.262       .  A
N462        O465   1.263       .  A
N462        O466   1.263       .  A
C467        C468   1.405       .  A
C467        C472   1.402       .  A
C467        H474   1.083       .  S
C468        C469   1.420       .  A
C469        C470   1.398       .  A
C469       N1516   1.438       .  S
C470        C471   1.395       .  A
C470        H475   1.084       .  S
C471        C472   1.410       .  A
C472        N473   1.442       .  S
N473        O477   1.263       .  A
N473        O478   1.263       .  A
N476       C1509   1.438   1_554  S
N476        O479   1.263       .  A
N476        O480   1.263       .  A
C481        C482   1.403       .  A
C481        C486   1.416       .  A
C481        H488   1.083       .  S
C482        C483   1.429       .  A
C483        C484   1.412       .  A
C483        N490   1.448       .  S
C484        C485   1.402       .  A
C484        H489   1.083       .  S
C485        C486   1.424       .  A
C486        N487   1.440       .  S
N487        O491   1.263       .  A
N487        O492   1.263       .  A
N490        O493   1.261       .  A
N490        O494   1.263       .  A
C495        C496   1.400       .  A
C495        C500   1.401   1_655  A
C495        H502   1.084       .  S
C496        C497   1.413       .  A
C497        C498   1.391   1_655  A
C497        N504   1.445       .  S
C498        C499   1.397       .  A
C498        H503   1.085       .  S
C499        C500   1.412       .  A
C500        N501   1.444       .  S
N501        O505   1.263       .  A
N501        O506   1.263       .  A
N504        O507   1.263       .  A
N504        O508   1.263       .  A
C509        C510   1.400       .  A
C509        C514   1.396       .  A
C509        H516   1.083       .  S
C510        C511   1.417       .  A
C511        C512   1.397       .  A
C511        N518   1.441       .  S
C512        C513   1.396       .  A
C512        H517   1.084       .  S
C513        C514   1.411       .  A
C514        N515   1.444       .  S
N515        O519   1.262       .  A
N515        O520   1.263       .  A
N518        O521   1.263       .  A
N518        O522   1.263       .  A
C523        C524   1.411       .  A
C523        C528   1.403       .  A
C523        H530   1.085       .  S
C524        C525   1.416       .  A
C525        C526   1.415       .  A
C525        N532   1.441       .  S
C526        C527   1.412       .  A
C526        H531   1.083       .  S
C527        C528   1.411       .  A
C528        N529   1.440       .  S
N529        O533   1.263       .  A
N529        O534   1.263       .  A
N532        O535   1.262       .  A
N532        O536   1.263       .  A
C537        C538   1.408       .  A
C537        C542   1.428       .  A
C537        H544   1.083       .  S
C538        C539   1.421       .  A
C539        C540   1.394       .  A
C539        N546   1.425   1_554  S
C540        C541   1.394       .  A
C540        H545   1.085       .  S
C541        C542   1.432       .  A
C542        N543   1.436       .  S
N543        O547   1.263       .  A
N543        O548   1.260       .  A
N546        O550   1.258       .  A
N546       O1589   1.262       .  A
O549       N1586   1.262       .  A
C551        C552   1.398       .  A
C551        C556   1.398       .  A
C551        H558   1.084       .  S
C552        C553   1.416       .  A
C553        C554   1.405       .  A
C553        N560   1.442       .  S
C554        C555   1.402       .  A
C554        H559   1.084       .  S
C555        C556   1.418       .  A
C556        N557   1.442       .  S
N557        O561   1.263       .  A
N557        O562   1.261       .  A
N560        O563   1.263       .  A
N560        O564   1.263       .  A
C565        C566   1.399       .  A
C565        C570   1.403       .  A
C565        H572   1.084       .  S
C566        C567   1.425       .  A
C567        C568   1.423       .  A
C567        N574   1.441       .  S
C568        C569   1.406       .  A
C568        H573   1.083       .  S
C569        C570   1.423       .  A
C570        N571   1.444       .  S
N571        O575   1.263       .  A
N571       O1616   1.262       .  A
N574        O577   1.262       .  A
N574        O578   1.263       .  A
O576       N1611   1.262       .  A
C579        C580   1.401       .  A
C579        C584   1.404       .  A
C579        H586   1.083       .  S
C580        C581   1.421       .  A
C581        C582   1.401       .  A
C581        N588   1.438       .  S
C582        C583   1.400       .  A
C582        H587   1.083       .  S
C583        C584   1.421       .  A
C584        N585   1.439       .  S
N585        O589   1.263       .  A
N585        O590   1.263       .  A
N588        O591   1.263       .  A
N588        O592   1.263       .  A
C593        C594   1.413       .  A
C593        C598   1.407       .  A
C593        H600   1.085       .  S
C594        C595   1.415       .  A
C595        C596   1.418       .  A
C595        N602   1.440       .  S
C596        C597   1.414       .  A
C596        H601   1.083       .  S
C597        C598   1.412       .  A
C598        N599   1.440       .  S
N599        O603   1.263       .  A
N599        O604   1.263       .  A
N602        O605   1.262       .  A
N602        O606   1.263       .  A
C607        C608   1.397       .  A
C607        C612   1.409       .  A
C607        H614   1.084       .  S
C608        C609   1.424       .  A
C609        C610   1.419       .  A
C609       N1656   1.441   1_554  S
C610        C611   1.405       .  A
C610        H615   1.083       .  S
C611        C612   1.429       .  A
C612        N613   1.438       .  S
N613        O617   1.263       .  A
N613        O618   1.263       .  A
N616       C1649   1.441       .  S
N616        O619   1.261       .  A
N616        O620   1.263       .  A
C621        C622   1.412       .  A
C621        C626   1.394       .  A
C621        H628   1.083       .  S
C622        C623   1.415       .  A
C623        C624   1.406       .  A
C623        N630   1.435       .  S
C624        C625   1.404       .  A
C624        H629   1.081       .  S
C625        C626   1.406       .  A
C626        N627   1.443       .  S
N627        O631   1.263       .  A
N627        O632   1.263       .  A
N630        O633   1.262       .  A
N630        O634   1.263       .  A
C635        C636   1.407       .  A
C635        C640   1.409       .  A
C635        H642   1.084       .  S
C636        C637   1.424       .  A
C637        C638   1.416       .  A
C637       N1684   1.434   1_554  S
C638        C639   1.404       .  A
C638        H643   1.084       .  S
C639        C640   1.421       .  A
C640        N641   1.442       .  S
N641        O645   1.263       .  A
N641        O646   1.262       .  A
N644       C1677   1.434       .  S
N644        O647   1.260       .  A
N644        O648   1.262       .  A
C649        C650   1.402       .  A
C649        C654   1.410       .  A
C649        H656   1.084       .  S
C650        C651   1.416       .  A
C651        C652   1.402       .  A
C651        N658   1.445       .  S
C652        C653   1.397       .  A
C652        H657   1.084       .  S
C653        C654   1.418       .  A
C654        N655   1.443       .  S
N655        O659   1.263       .  A
N655        O660   1.262       .  A
N658        O661   1.262       .  A
N658        O662   1.261       .  A
C663        C664   1.398       .  A
C663        C668   1.392       .  A
C663        H670   1.083       .  S
C664        C665   1.404       .  A
C665        C666   1.388       .  A
C665        N672   1.442       .  S
C666        C667   1.402       .  A
C666        H671   1.084       .  S
C667        C668   1.406       .  A
C668        N669   1.438       .  S
N669        O673   1.262       .  A
N669        O674   1.263       .  A
N672        O675   1.263       .  A
N672        O676   1.263       .  A
C677        C678   1.413       .  A
C677        C682   1.415   1_565  A
C677        H684   1.083       .  S
C678        C679   1.417       .  A
C679        C680   1.409   1_565  A
C679        N686   1.437       .  S
C680        C681   1.408       .  A
C680        H685   1.084       .  S
C681        C682   1.415       .  A
C682        N683   1.442       .  S
N683        O687   1.263   1_545  A
N683        O688   1.262       .  A
N686        O689   1.263       .  A
N686        O690   1.263       .  A
C691        C692   1.409       .  A
C691        C696   1.407       .  A
C691        H698   1.083       .  S
C692        C693   1.420       .  A
C693        C694   1.408       .  A
C693        N700   1.434       .  S
C694        C695   1.409       .  A
C694        H699   1.083       .  S
C695        C696   1.419       .  A
C696        N697   1.435       .  S
N697        O701   1.262       .  A
N697        O702   1.263       .  A
N700        O703   1.263       .  A
N700        O704   1.262       .  A
C705        C706   1.403       .  A
C705        C710   1.389       .  A
C705        H712   1.084       .  S
C706        C707   1.413       .  A
C707        C708   1.393       .  A
C707        N714   1.439       .  S
C708        C709   1.402       .  A
C708        H713   1.084       .  S
C709        C710   1.413       .  A
C710        N711   1.435       .  S
N711        O715   1.262       .  A
N711        O716   1.263       .  A
N714        O717   1.262       .  A
N714        O718   1.263       .  A
C719        C720   1.404       .  A
C719        C724   1.410       .  A
C719        H726   1.084       .  S
C720        C721   1.423       .  A
C721        C722   1.418       .  A
C721       N1768   1.437       .  S
C722        C723   1.405       .  A
C722        H727   1.083       .  S
C723        C724   1.421       .  A
C724        N725   1.438       .  S
N725        O729   1.263       .  A
N725        O730   1.261       .  A
N728       C1761   1.437   1_554  S
N728        O731   1.262       .  A
N728        O732   1.263       .  A
C733        C734   1.404       .  A
C733        C738   1.405       .  A
C733        H740   1.084       .  S
C734        C735   1.414       .  A
C735        C736   1.408       .  A
C735        N742   1.443       .  S
C736        C737   1.403       .  A
C736        H741   1.082       .  S
C737        C738   1.413       .  A
C738        N739   1.442       .  S
N739        O743   1.263       .  A
N739        O744   1.263       .  A
N742        O745   1.263       .  A
N742        O746   1.263       .  A
C747        C748   1.410       .  A
C747        C752   1.416       .  A
C747       H1794   1.084       .  S
C748        C749   1.416       .  A
C749        C750   1.414       .  A
C749        N756   1.441       .  S
C750        C751   1.409       .  A
C750        H755   1.084       .  S
C751        C752   1.416       .  A
C752        N753   1.442       .  S
N753        O757   1.263       .  A
N753        O758   1.263       .  A
H754       C1787   1.084   1_554  S
N756        O759   1.263       .  A
N756        O760   1.263       .  A
C761        C762   1.405       .  A
C761        C766   1.409       .  A
C761        H768   1.084       .  S
C762        C763   1.415       .  A
C763        C764   1.406       .  A
C763        N770   1.443       .  S
C764        C765   1.404       .  A
C764        H769   1.084       .  S
C765        C766   1.413       .  A
C766        N767   1.442       .  S
N767        O771   1.263       .  A
N767        O772   1.263       .  A
N770        O773   1.261       .  A
N770        O774   1.263       .  A
C775        C776   1.415       .  A
C775        C780   1.416       .  A
C775        H782   1.083       .  S
C776        C777   1.415       .  A
C777        C778   1.412       .  A
C777        N784   1.438       .  S
C778        C779   1.408       .  A
C778        H783   1.084       .  S
C779        C780   1.414       .  A
C780        N781   1.443       .  S
N781        O785   1.263       .  A
N781        O786   1.262       .  A
N784        O787   1.262       .  A
N784        O788   1.263       .  A
C789        C790   1.403       .  A
C789        C794   1.410       .  A
C789        H796   1.084       .  S
C790        C791   1.410       .  A
C791        C792   1.392       .  A
C791        N798   1.442       .  S
C792        C793   1.407       .  A
C792        H797   1.083       .  S
C793        C794   1.418       .  A
C794        N795   1.435       .  S
N795        O799   1.262       .  A
N795        O800   1.262       .  A
N798        O801   1.263       .  A
N798        O802   1.263       .  A
C803        C804   1.403       .  A
C803        C808   1.418       .  A
C803        H810   1.084       .  S
C804        C805   1.423       .  A
C805        C806   1.415       .  A
C805       N1852   1.442       .  S
C806        C807   1.401       .  A
C806        H811   1.083       .  S
C807        C808   1.429       .  A
C808        N809   1.448       .  S
N809        O813   1.263       .  A
N809        O814   1.262       .  A
N812       C1845   1.442       .  S
N812        O815   1.263   1_556  A
N812        O816   1.263   1_556  A
C817        C818   1.398       .  A
C817        C822   1.389       .  A
C817        H824   1.085       .  S
C818        C819   1.418       .  A
C819        C820   1.411       .  A
C819        N826   1.445       .  S
C820        C821   1.407       .  A
C820        H825   1.083       .  S
C821        C822   1.416       .  A
C822        N823   1.435       .  S
N823        O827   1.263       .  A
N823        O828   1.262       .  A
N826        O829   1.261       .  A
N826        O830   1.263       .  A
C831        C832   1.406       .  A
C831        C836   1.384       .  A
C831        H838   1.083       .  S
C832        C833   1.413       .  A
C833        C834   1.391       .  A
C833        N840   1.435       .  S
C834        C835   1.394       .  A
C834        H839   1.085       .  S
C835        C836   1.402       .  A
C836        N837   1.442       .  S
N837        O841   1.263       .  A
N837        O842   1.262       .  A
N840        O843   1.263       .  A
N840        O844   1.263   1_554  A
C845        C846   1.401   1_455  A
C845       C1890   1.408   1_565  A
C845        H852   1.084       .  S
C846        C847   1.419       .  A
C847       C1888   1.410   1_565  A
C847        N854   1.443       .  S
C848        C849   1.401       .  A
C848       C1887   1.410   1_544  A
C848        H853   1.084       .  S
C849        C850   1.419   1_655  A
C850       C1885   1.408   1_544  A
C850        N851   1.443       .  S
N851        O855   1.263   1_554  A
N851        O856   1.263       .  A
N854        O857   1.263       .  A
N854        O858   1.263       .  A
C859        C860   1.402   1_455  A
C859       C1904   1.404       .  A
C859        H866   1.085       .  S
C860        C861   1.415       .  A
C861       C1902   1.411       .  A
C861        N868   1.442       .  S
C862        C863   1.410   1_556  A
C862       C1901   1.410       .  A
C862        H867   1.083       .  S
C863        C864   1.419   1_655  A
C864       C1899   1.404   1_554  A
C864        N865   1.437       .  S
N865        O869   1.263       .  A
N865        O870   1.263       .  A
N868        O871   1.262       .  A
N868        O872   1.263       .  A
C873        C874   1.395       .  A
C873        C878   1.386       .  A
C873        H880   1.085       .  S
C874        C875   1.408   1_655  A
C875        C876   1.391       .  A
C875        N882   1.444       .  S
C876        C877   1.404   1_455  A
C876        H881   1.083       .  S
C877        C878   1.414       .  A
C878        N879   1.438       .  S
N879        O883   1.263       .  A
N879        O884   1.263       .  A
N882        O885   1.262       .  A
N882        O886   1.263       .  A
C887        C888   1.395       .  A
C887        C892   1.404       .  A
C887        H894   1.084       .  S
C888        C889   1.429       .  A
C889        C890   1.407       .  A
C889        N896   1.439       .  S
C890        C891   1.395       .  A
C890        H895   1.084       .  S
C891        C892   1.428       .  A
C892        N893   1.440       .  S
N893        O897   1.263       .  A
N893        O898   1.263       .  A
N896        O899   1.263       .  A
N896        O900   1.263       .  A
C901        C902   1.413       .  A
C901        C906   1.426       .  A
C901        H908   1.083       .  S
C902        C903   1.414       .  A
C903        C904   1.399       .  A
C903        N910   1.441       .  S
C904        C905   1.405       .  A
C904        H909   1.084       .  S
C905        C906   1.420       .  A
C906        N907   1.442       .  S
N907        O911   1.263       .  A
N907        O912   1.262       .  A
N910        O913   1.262       .  A
N910        O914   1.263       .  A
C915        C916   1.398       .  A
C915        C920   1.399       .  A
C915        H922   1.084       .  S
C916        C917   1.419       .  A
C917        C918   1.402       .  A
C917        N924   1.440       .  S
C918        C919   1.400       .  A
C918        H923   1.083       .  S
C919        C920   1.420       .  A
C920       N1961   1.440   1_554  S
N921       C1960   1.440       .  S
N921        O925   1.263       .  A
N921        O926   1.263       .  A
N924        O927   1.263       .  A
N924        O928   1.263       .  A
C929        C930   1.420       .  A
C929        C934   1.420       .  A
C929        H936   1.083       .  S
C930        C931   1.409       .  A
C931        C932   1.410       .  A
C931        N938   1.432       .  S
C932        C933   1.418       .  A
C932        H937   1.085       .  S
C933        C934   1.415       .  A
C934        N935   1.442       .  S
N935        O939   1.262       .  A
N935        O940   1.261       .  A
N938        O941   1.262       .  A
N938        O942   1.262       .  A
C943        C944   1.406       .  A
C943        C948   1.396       .  A
C943       H1990   1.084   1_554  S
C944        C945   1.410       .  A
C945        C946   1.398       .  A
C945        N952   1.441       .  S
C946        C947   1.408       .  A
C946        H951   1.084       .  S
C947        C948   1.411       .  A
C948        N949   1.435       .  S
N949        O953   1.262   1_554  A
N949        O954   1.263       .  A
H950       C1983   1.084       .  S
N952        O955   1.263       .  A
N952        O956   1.263       .  A
C957        C958   1.398       .  A
C957        C962   1.409       .  A
C957        H964   1.084       .  S
C958        C959   1.420       .  A
C959        C960   1.406       .  A
C959        N966   1.439       .  S
C960        C961   1.399       .  A
C960        H965   1.084       .  S
C961        C962   1.423       .  A
C962        N963   1.443       .  S
N963        O967   1.263       .  A
N963        O968   1.263       .  A
N966        O969   1.262       .  A
N966        O970   1.263       .  A
C971        C972   1.413       .  A
C971        C976   1.427       .  A
C971        H978   1.083       .  S
C972        C973   1.409       .  A
C973        C974   1.401       .  A
C973        N980   1.436       .  S
C974        C975   1.404       .  A
C974        H979   1.079       .  S
C975        C976   1.422       .  A
C976        N977   1.443       .  S
N977        O981   1.263       .  A
N977        O982   1.262       .  A
N980        O983   1.262       .  A
N980        O984   1.262       .  A
C985        C986   1.409       .  A
C985        C990   1.405       .  A
C985       H2032   1.084       .  S
C986        C987   1.415       .  A
C987        C988   1.395       .  A
C987        N994   1.433       .  S
C988        C989   1.401       .  A
C988        H993   1.085       .  S
C989        C990   1.410       .  A
C990        N991   1.436       .  S
N991        O995   1.263       .  A
N991        O996   1.261       .  A
H992       C2025   1.084       .  S
N994        O997   1.263       .  A
N994        O998   1.262       .  A
C999       C1000   1.408       .  A
C999       C1004   1.415       .  A
C999       H1006   1.083       .  S
C1000      C1001   1.411       .  A
C1001      C1002   1.391       .  A
C1001      N1008   1.441       .  S
C1002      C1003   1.402       .  A
C1002      H1007   1.085       .  S
C1003      C1004   1.416       .  A
C1004      N1005   1.445       .  S
N1005      O1009   1.263       .  A
N1005      O1010   1.262       .  A
N1008      O1011   1.263       .  A
N1008      O1012   1.263       .  A
C1013      C1014   1.412       .  A
C1013      C1018   1.419       .  A
C1013      H1020   1.084       .  S
C1014      C1015   1.410       .  A
C1015      C1016   1.409       .  A
C1015      N1022   1.441       .  S
C1016      C1017   1.415       .  A
C1016      H1021   1.084       .  S
C1017      C1018   1.416       .  A
C1018      N1019   1.436       .  S
N1019      O1023   1.263       .  A
N1019      O1024   1.262       .  A
N1022      O1025   1.263       .  A
N1022      O1026   1.263       .  A
C1027      C1028   1.399       .  A
C1027      C1032   1.390   1_455  A
C1027      H1034   1.085       .  S
C1028      C1029   1.403       .  A
C1029      C1030   1.390   1_455  A
C1029      N1036   1.441       .  S
C1030      C1031   1.404       .  A
C1030      H1035   1.083       .  S
C1031      C1032   1.409       .  A
C1032      N1033   1.442       .  S
N1033      O1037   1.262       .  A
N1033      O1038   1.262       .  A
N1036      O1039   1.262       .  A
N1036      O1040   1.263       .  A
Zn1041     O1045   1.913       .  S
Zn1041     O1046   1.924       .  S
Zn1041     O1050   1.970       .  S
Zn1041     O1057   1.976       .  S
Zn1042     O1045   1.965       .  S
Zn1042     O1047   2.028       .  S
Zn1042     O1049   1.957       .  S
Zn1042     O1053   2.022       .  S
Zn1043     O1045   1.948       .  S
Zn1043     O1048   2.032       .  S
Zn1043     O1051   2.067       .  S
Zn1043     O1054   2.046       .  S
Zn1044     O1045   1.953       .  S
Zn1044     O1052   2.041       .  S
Zn1044     O1055   2.073       .  S
Zn1044     O1056   2.027       .  S
O1046      C1058   1.263       .  A
O1047      C1059   1.277       .  A
O1048      C1060   1.272       .  A
O1049      C1058   1.262       .  A
O1050      C1060   1.268       .  A
O1051      C1059   1.279       .  A
O1052      C1061   1.284       .  A
O1053      C1062   1.277       .  A
O1054      C1061   1.284       .  A
O1055      C1062   1.278       .  A
O1056      C1063   1.269       .  A
O1057      C1063   1.267       .  A
C1058      C2068   1.435       .  S
C1059      C2054   1.496       .  S
C1060      C2040   1.474       .  S
C1061      C2001   1.480       .  S
C1062      C2015   1.500       .  S
C1063      C2029   1.471       .  S
Zn1064     O1068   1.878       .  S
Zn1064     O1069   1.938       .  S
Zn1064     O1073   1.957       .  S
Zn1064     O1080   1.920       .  S
Zn1065     O1068   1.906       .  S
Zn1065     O1070   1.949       .  S
Zn1065     O1072   1.975       .  S
Zn1065     O1076   1.955       .  S
Zn1066     O1068   1.904       .  S
Zn1066     O1071   2.027       .  S
Zn1066     O1074   2.017       .  S
Zn1066     O1077   1.906       .  S
Zn1067     O1068   1.966       .  S
Zn1067     O1075   2.152       .  S
Zn1067     O1078   2.158       .  S
Zn1067     O1079   2.150       .  S
O1069      C1081   1.268       .  A
O1070      C1082   1.266       .  A
O1071      C1083   1.272       .  A
O1072      C1081   1.267       .  A
O1073      C1083   1.264       .  A
O1074      C1082   1.272       .  A
O1075      C1084   1.297       .  A
O1076      C1085   1.261       .  A
O1077      C1084   1.266       .  A
O1078      C1085   1.286       .  A
O1079      C1086   1.289       .  A
O1080      C1086   1.262       .  A
C1081      C2071   1.444       .  S
C1082      C1987   1.473       .  S
C1083      C1956   1.475       .  S
C1084      C1931   1.485       .  S
C1085      C1970   1.513       .  S
C1086      C1945   1.493       .  S
Zn1087     O1091   1.962       .  S
Zn1087     O1092   2.156   1_655  S
Zn1087     O1096   2.132       .  S
Zn1087     O1103   2.127       .  S
Zn1088     O1091   1.891   1_455  S
Zn1088     O1093   1.937       .  S
Zn1088     O1095   1.927       .  S
Zn1088     O1099   1.956       .  S
Zn1089     O1091   1.899       .  S
Zn1089     O1094   1.956       .  S
Zn1089     O1097   1.942       .  S
Zn1089     O1100   1.935       .  S
Zn1090     O1091   1.933       .  S
Zn1090     O1102   1.948       .  S
O1092      C1104   1.287       .  A
O1093      C1105   1.266   1_455  A
O1094      C1106   1.259       .  A
O1095      C1104   1.261       .  A
O1096      C1106   1.286       .  A
O1097      C1105   1.267       .  A
O1098      C1107   1.273       .  A
O1101      C1108   1.274       .  A
O1102      C1109   1.274       .  A
O1103      C1109   1.296       .  A
C1104      C2057   1.509       .  S
C1105      C1914   1.434       .  S
C1106      C1942   1.489       .  S
C1107      C1959   1.476       .  S
C1108      C2043   1.467       .  S
C1109      C1900   1.472       .  S
Zn1110     O1114   1.894       .  S
Zn1110     O1115   1.923       .  S
Zn1110     O1119   1.966       .  S
Zn1110     O1126   1.919       .  S
Zn1111     O1114   1.956       .  S
Zn1111     O1116   2.142       .  S
Zn1111     O1118   2.178       .  S
Zn1111     O1122   2.151   1_655  S
Zn1112     O1114   1.922       .  S
Zn1112     O1120   1.917       .  S
Zn1113     O1114   1.919   1_455  S
Zn1113     O1121   1.983       .  S
Zn1113     O1124   1.941       .  S
Zn1113     O1125   1.961       .  S
O1115      C1127   1.260       .  A
O1116      C1128   1.296       .  A
O1117      C1129   1.269       .  A
O1118      C1127   1.291       .  A
O1120      C1128   1.267       .  A
O1122      C1131   1.292       .  A
O1123      C1130   1.269       .  A
O1124      C1131   1.265       .  A
O1125      C1132   1.268   1_455  A
O1126      C1132   1.263       .  A
C1127      C1973   1.507       .  S
C1128      C1886   1.472       .  S
C1129      C1984   1.470       .  S
C1130      C2026   1.482       .  S
C1131      C2012   1.488       .  S
C1132      C1917   1.454       .  S
Zn1133     O1137   1.974       .  S
Zn1133     O1138   2.148       .  S
Zn1134     O1137   1.938       .  S
Zn1134     O1139   2.017       .  S
Zn1134     O1141   1.921       .  S
Zn1134     O1145   2.005       .  S
Zn1135     O1137   1.907       .  S
Zn1135     O1140   1.926       .  S
Zn1135     O1143   1.958       .  S
Zn1135     O1146   1.916       .  S
Zn1136     O1137   1.953       .  S
Zn1136     O1144   1.968       .  S
Zn1136     O1147   1.994       .  S
Zn1136     O1148   1.944       .  S
O1138      C1150   1.297       .  A
O1139      C1151   1.269       .  A
O1141      C1150   1.267       .  A
O1142      C1152   1.288       .  A
O1143      C1151   1.263       .  A
O1144      C1153   1.266       .  A
O1145      C1154   1.269       .  A
O1146      C1153   1.263       .  A
O1147      C1154   1.265       .  A
O1149      C1155   1.288       .  A
C1150      C1928   1.487       .  S
C1151      C1861   1.480       .  S
C1152      C1844   1.498       .  S
C1153      C1872   1.459       .  S
C1154      C1830   1.465       .  S
C1155      C1816   1.501       .  S
Zn1156     O1160   1.947       .  S
Zn1156     O1161   2.037       .  S
Zn1156     O1165   2.034       .  S
Zn1156     O1172   2.076       .  S
Zn1157     O1160   1.963       .  S
Zn1157     O1162   2.042       .  S
Zn1157     O1164   2.051       .  S
Zn1157     O1168   2.097       .  S
Zn1158     O1160   1.942       .  S
Zn1158     O1163   2.006       .  S
Zn1158     O1166   1.993       .  S
Zn1158     O1169   1.958       .  S
Zn1159     O1160   1.956       .  S
Zn1159     O1167   1.935       .  S
O1161      C1173   1.284       .  A
O1162      C1174   1.273       .  A
O1163      C1175   1.269       .  A
O1164      C1173   1.285       .  A
O1165      C1175   1.271       .  A
O1166      C1174   1.269       .  A
O1167      C1176   1.262       .  A
O1169      C1176   1.269       .  A
O1170      C1177   1.271       .  A
O1171      C1178   1.272       .  A
C1173      C1998   1.481       .  S
C1174      C1777   1.473       .  S
C1175      C1802   1.476       .  S
C1176      C1875   1.427       .  S
C1177      C1760   1.501       .  S
C1178      C1788   1.498       .  S
Zn1179     O1183   1.928       .  S
Zn1179     O1184   2.056       .  S
Zn1179     O1188   2.054       .  S
Zn1179     O1195   2.069       .  S
Zn1180     O1183   1.942       .  S
Zn1180     O1185   2.059       .  S
Zn1180     O1187   2.051       .  S
Zn1180     O1191   2.082       .  S
Zn1181     O1183   1.897       .  S
Zn1181     O1186   1.988       .  S
Zn1181     O1189   1.948       .  S
Zn1181     O1192   1.957       .  S
Zn1182     O1183   1.908       .  S
Zn1182     O1190   1.978       .  S
Zn1182     O1193   2.027       .  S
Zn1182     O1194   2.036       .  S
O1184      C1196   1.286       .  A
O1185      C1197   1.273       .  A
O1186      C1198   1.264       .  A
O1187      C1196   1.287       .  A
O1188      C1198   1.271       .  A
O1189      C1197   1.267       .  A
O1190      C1199   1.271       .  A
O1191      C1200   1.284       .  A
O1192      C1199   1.265       .  A
O1193      C1200   1.277       .  A
O1194      C1201   1.278       .  A
O1195      C1201   1.282       .  A
C1196      C1732   1.504       .  S
C1197      C1833   1.489       .  S
C1198      C1805   1.476       .  S
C1199      C1749   1.459       .  S
C1200      C1819   1.494       .  S
C1201      C1791   1.496       .  S
Zn1202     O1206   1.908       .  S
Zn1202     O1207   1.964       .  S
Zn1202     O1211   1.992       .  S
Zn1202     O1218   1.958       .  S
Zn1203     O1206   1.946       .  S
Zn1203     O1208   2.056       .  S
Zn1203     O1210   2.033       .  S
Zn1203     O1214   2.101       .  S
Zn1204     O1206   1.932       .  S
Zn1204     O1209   2.044       .  S
Zn1204     O1212   2.062       .  S
Zn1204     O1215   2.078       .  S
Zn1205     O1206   1.920       .  S
Zn1205     O1213   2.030       .  S
Zn1205     O1216   2.025       .  S
Zn1205     O1217   1.973       .  S
O1207      C1219   1.268       .  A
O1208      C1220   1.287       .  A
O1209      C1221   1.270       .  A
O1210      C1219   1.271       .  A
O1211      C1221   1.265       .  A
O1212      C1220   1.287       .  A
O1213      C1222   1.277       .  A
O1214      C1223   1.286       .  A
O1215      C1222   1.283       .  A
O1216      C1223   1.277       .  A
O1217      C1224   1.268       .  A
O1218      C1224   1.267       .  A
C1219      C1858   1.467       .  S
C1220      C1718   1.505       .  S
C1221      C1774   1.474       .  S
C1222      C1763   1.499       .  S
C1223      C1847   1.496       .  S
C1224      C1746   1.465       .  S
Zn1225     O1229   1.917       .  S
Zn1225     O1230   1.967       .  S
Zn1226     O1229   1.905       .  S
Zn1226     O1231   1.964       .  S
Zn1226     O1233   1.942       .  S
Zn1226     O1237   1.951       .  S
Zn1227     O1229   1.957       .  S
Zn1227     O1232   2.105       .  S
Zn1227     O1235   2.055       .  S
Zn1227     O1238   2.057       .  S
Zn1228     O1229   1.957       .  S
Zn1228     O1236   2.061       .  S
Zn1228     O1239   2.033       .  S
Zn1228     O1240   2.091       .  S
O1230      C1242   1.263       .  A
O1231      C1243   1.265       .  A
O1233      C1242   1.263       .  A
O1234      C1244   1.275       .  A
O1235      C1243   1.273       .  A
O1236      C1245   1.287       .  A
O1237      C1246   1.264       .  A
O1238      C1245   1.286       .  A
O1239      C1246   1.269       .  A
O1241      C1247   1.274       .  A
C1242      C1704   1.433       .  S
C1243      C1690   1.471       .  S
C1244      C1676   1.506       .  S
C1245      C1637   1.498       .  S
C1246      C1665   1.465       .  S
C1247      C1648   1.496       .  S
Zn1248     O1252   1.868       .  S
Zn1248     O1253   1.930       .  S
Zn1248     O1257   1.938       .  S
Zn1248     O1264   1.924       .  S
Zn1249     O1252   1.902       .  S
Zn1249     O1254   1.956       .  S
Zn1249     O1256   1.985       .  S
Zn1249     O1260   1.963       .  S
Zn1250     O1252   1.918       .  S
Zn1250     O1255   2.047       .  S
Zn1250     O1258   2.024       .  S
Zn1250     O1261   1.925       .  S
Zn1251     O1252   1.968       .  S
Zn1251     O1259   2.168       .  S
O1253      C1265   1.262       .  A
O1254      C1266   1.264       .  A
O1255      C1267   1.274       .  A
O1256      C1265   1.270       .  A
O1257      C1267   1.259       .  A
O1258      C1266   1.272       .  A
O1259      C1268   1.300       .  A
O1261      C1268   1.272       .  A
O1262      C1269   1.287       .  A
O1263      C1270   1.291       .  A
C1265      C1707   1.444       .  S
C1266      C1592   1.467       .  S
C1267      C1623   1.485       .  S
C1268      C1564   1.487       .  S
C1269      C1578   1.515       .  S
C1270      C1609   1.499       .  S
Zn1271     O1275   1.916       .  S
Zn1271     O1276   1.963       .  S
Zn1271     O1280   1.973       .  S
Zn1271     O1287   1.998       .  S
Zn1272     O1275   1.925       .  S
Zn1272     O1277   1.965       .  S
Zn1272     O1279   2.055       .  S
Zn1272     O1283   2.063       .  S
Zn1273     O1275   1.959       .  S
Zn1273     O1278   2.125       .  S
Zn1273     O1281   2.146       .  S
Zn1273     O1284   2.154       .  S
Zn1274     O1275   1.877       .  S
Zn1274     O1282   1.931       .  S
Zn1274     O1285   1.925       .  S
Zn1274     O1286   1.947       .  S
O1276      C1288   1.267       .  A
O1277      C1289   1.273       .  A
O1278      C1290   1.285       .  A
O1279      C1288   1.278       .  A
O1280      C1290   1.260       .  A
O1281      C1289   1.296       .  A
O1282      C1291   1.260       .  A
O1283      C1292   1.276       .  A
O1284      C1291   1.288       .  A
O1285      C1292   1.265       .  A
O1286      C1293   1.265       .  A
O1287      C1293   1.272       .  A
C1288      C1620   1.485       .  S
C1289      C1721   1.488       .  S
C1290      C1606   1.494       .  S
C1291      C1651   1.510       .  S
C1292      C1662   1.488       .  S
C1293      C1550   1.468       .  S
Zn1294     O1298   1.959       .  S
Zn1294     O1299   2.050       .  S
Zn1294     O1303   2.016       .  S
Zn1294     O1310   2.069       .  S
Zn1295     O1298   1.942       .  S
Zn1295     O1300   2.019       .  S
Zn1295     O1302   2.039       .  S
Zn1295     O1306   2.061       .  S
Zn1296     O1298   1.933       .  S
Zn1296     O1301   1.988       .  S
Zn1296     O1304   2.011       .  S
Zn1296     O1307   1.983       .  S
Zn1297     O1298   1.952       .  S
Zn1297     O1305   1.967       .  S
Zn1297     O1308   2.038       .  S
Zn1297     O1309   2.018       .  S
O1299      C1311   1.284       .  A
O1300      C1312   1.270       .  A
O1301      C1313   1.270       .  A
O1302      C1311   1.282       .  A
O1303      C1313   1.272       .  A
O1304      C1312   1.273       .  A
O1305      C1314   1.263       .  A
O1306      C1315   1.279       .  A
O1307      C1314   1.270       .  A
O1308      C1315   1.277       .  A
O1309      C1316   1.279       .  A
O1310      C1316   1.276       .  A
C1311      C1735   1.503       .  S
C1312      C1693   1.473       .  S
C1313      C1595   1.472       .  S
C1314      C1553   1.448       .  S
C1315      C1679   1.495       .  S
C1316      C1581   1.509       .  S
Zn1317     O1321   1.938       .  S
Zn1317     O1322   2.029       .  S
Zn1317     O1326   2.099       .  S
Zn1317     O1333   2.002       .  S
Zn1318     O1321   1.951       .  S
Zn1318     O1323   2.100       .  S
Zn1318     O1325   2.056       .  S
Zn1318     O1329   2.046       .  S
Zn1319     O1321   1.909       .  S
Zn1319     O1324   1.997       .  S
Zn1319     O1327   2.001       .  S
Zn1319     O1330   1.954       .  S
Zn1320     O1321   1.920       .  S
Zn1320     O1328   1.977       .  S
Zn1320     O1331   1.983       .  S
Zn1320     O1332   1.989       .  S
O1322      C1334   1.284       .  A
O1323      C1335   1.281       .  A
O1324      C1336   1.270       .  A
O1325      C1334   1.286       .  A
O1326      C1336   1.282       .  A
O1327      C1335   1.271       .  A
O1328      C1337   1.268       .  A
O1329      C1338   1.274       .  A
O1330      C1337   1.263       .  A
O1331      C1338   1.270       .  A
O1332      C1339   1.270       .  A
O1333      C1339   1.268       .  A
C1334      C1567   1.492       .  S
C1335      C1483   1.503       .  S
C1336      C1522   1.495       .  S
C1337      C1539   1.450       .  S
C1338      C1494   1.477       .  S
C1339      C1511   1.457       .  S
Zn1340     O1344   1.970       .  S
Zn1340     O1345   2.173       .  S
Zn1340     O1349   2.150       .  S
Zn1340     O1356   2.159       .  S
Zn1341     O1344   1.918       .  S
Zn1341     O1346   2.015       .  S
Zn1341     O1348   1.927       .  S
Zn1341     O1352   2.016       .  S
Zn1342     O1344   1.891       .  S
Zn1342     O1347   1.942       .  S
Zn1342     O1350   1.968       .  S
Zn1342     O1353   1.936       .  S
Zn1343     O1344   1.940       .  S
Zn1343     O1351   1.997       .  S
Zn1343     O1354   1.974       .  S
Zn1343     O1355   1.971       .  S
O1345      C1357   1.298       .  A
O1346      C1358   1.270       .  A
O1347      C1359   1.265       .  A
O1348      C1357   1.268       .  A
O1349      C1359   1.289       .  A
O1350      C1358   1.267       .  A
O1351      C1360   1.269       .  A
O1352      C1361   1.271       .  A
O1353      C1360   1.267       .  A
O1354      C1361   1.268       .  A
O1355      C1362   1.267       .  A
O1356      C1362   1.288       .  A
C1357      C1634   1.497       .  S
C1358      C1441   1.471       .  S
C1359      C1427   1.510       .  S
C1360      C1536   1.450       .  S
C1361      C1466   1.480       .  S
C1362      C1452   1.518       .  S
Zn1363     O1367   1.959       .  S
Zn1363     O1368   2.122   1_655  S
Zn1363     O1372   2.138       .  S
Zn1363     O1379   2.136       .  S
Zn1364     O1367   1.935   1_455  S
Zn1364     O1369   1.967       .  S
Zn1364     O1371   1.968       .  S
Zn1364     O1375   1.986       .  S
Zn1365     O1367   1.924       .  S
Zn1365     O1370   1.915       .  S
Zn1366     O1367   1.893       .  S
Zn1366     O1374   1.957       .  S
Zn1366     O1377   1.930       .  S
Zn1366     O1378   1.941       .  S
O1368      C1380   1.285       .  A
O1370      C1382   1.265       .  A
O1371      C1380   1.264       .  A
O1372      C1382   1.294       .  A
O1373      C1381   1.273       .  A
O1375      C1384   1.268       .  A
O1376      C1383   1.271       .  A
O1377      C1384   1.267   1_655  A
O1378      C1385   1.263       .  A
O1379      C1385   1.288       .  A
C1380      C1525   1.502       .  S
C1381      C1508   1.480       .  S
C1382      C1889   1.473       .  S
C1383      C1438   1.472       .  S
C1384      C1410   1.448       .  S
C1385      C1424   1.497       .  S
Zn1386     O1390   1.927       .  S
Zn1386     O1391   1.944       .  S
Zn1387     O1390   1.938       .  S
Zn1387     O1392   2.021   1_655  S
Zn1387     O1394   1.955   1_655  S
Zn1387     O1398   2.003       .  S
Zn1388     O1390   1.958   1_455  S
Zn1388     O1393   2.039       .  S
Zn1388     O1396   2.079       .  S
Zn1388     O1399   2.020       .  S
Zn1389     O1390   1.957       .  S
Zn1389     O1397   2.058       .  S
Zn1389     O1400   2.104       .  S
Zn1389     O1401   2.013       .  S
O1391      C1403   1.265   1_655  A
O1392      C1404   1.276       .  A
O1394      C1403   1.261       .  A
O1395      C1405   1.268       .  A
O1396      C1404   1.278       .  A
O1397      C1406   1.287       .  A
O1398      C1407   1.270       .  A
O1399      C1406   1.281   1_455  A
O1400      C1407   1.283       .  A
O1402      C1408   1.269       .  A
C1403      C1413   1.436       .  S
C1404      C1480   1.497       .  S
C1405      C1497   1.472       .  S
C1406      C1903   1.497       .  S
C1407      C1455   1.500       .  S
C1408      C1469   1.467   1_554  S
C1409      C1410   1.403   1_655  A
C1409      C1414   1.388       .  A
C1409      H1416   1.085       .  S
C1410      C1411   1.409       .  A
C1411      C1412   1.394       .  A
C1411      N1418   1.437       .  S
C1412      C1413   1.400       .  A
C1412      H1417   1.085       .  S
C1413      C1414   1.403   1_455  A
C1414      N1415   1.440       .  S
N1415      O1419   1.263       .  A
N1415      O1420   1.262       .  A
N1418      O1421   1.262       .  A
N1418      O1422   1.262       .  A
C1423      C1424   1.415       .  A
C1423      C1428   1.415       .  A
C1423      H1430   1.083       .  S
C1424      C1425   1.410       .  A
C1425      C1426   1.408       .  A
C1425      N1432   1.437       .  S
C1426      C1427   1.418       .  A
C1426      H1431   1.081       .  S
C1427      C1428   1.413       .  A
C1428      N1429   1.436       .  S
N1429      O1433   1.263       .  A
N1429      O1434   1.262       .  A
N1432      O1435   1.263       .  A
N1432      O1436   1.262       .  A
C1437      C1438   1.400       .  A
C1437      C1442   1.399       .  A
C1437      H1444   1.083       .  S
C1438      C1439   1.418       .  A
C1439      C1440   1.400       .  A
C1440      C1441   1.399       .  A
C1440      H1445   1.083       .  S
C1441      C1442   1.415       .  A
C1442      N1443   1.439       .  S
N1443      O1447   1.263       .  A
N1443      O1448   1.263       .  A
N1446      O1449   1.263       .  A
N1446      O1450   1.263       .  A
C1451      C1452   1.416       .  A
C1451      C1456   1.411       .  A
C1451      H1458   1.083       .  S
C1452      C1453   1.420       .  A
C1453      C1454   1.423       .  A
C1453      N1460   1.438       .  S
C1454      C1455   1.412       .  A
C1454      H1459   1.084       .  S
C1455      C1456   1.412       .  A
C1456      N1457   1.442       .  S
N1457      O1461   1.263       .  A
N1457      O1462   1.263       .  A
N1460      O1463   1.262       .  A
N1460      O1464   1.263       .  A
C1465      C1466   1.409       .  A
C1465      C1470   1.403       .  A
C1465      H1472   1.084       .  S
C1466      C1467   1.414       .  A
C1467      C1468   1.395       .  A
C1467      N1474   1.433       .  S
C1468      C1469   1.401       .  A
C1468      H1473   1.085   1_556  S
C1469      C1470   1.412       .  A
C1470      N1471   1.440       .  S
N1471      O1475   1.263       .  A
N1471      O1476   1.262       .  A
N1474      O1477   1.263       .  A
N1474      O1478   1.262       .  A
C1479      C1480   1.394       .  A
C1479      C1484   1.391       .  A
C1479      H1486   1.065       .  S
C1480      C1481   1.421       .  A
C1481      C1482   1.431       .  A
C1481      N1488   1.441       .  S
C1482      C1483   1.416       .  A
C1482      H1487   1.082       .  S
C1483      C1484   1.416       .  A
C1484      N1485   1.438       .  S
N1485      O1489   1.263       .  A
N1485      O1490   1.262       .  A
N1488      O1491   1.262       .  A
N1488      O1492   1.263       .  A
C1493      C1494   1.406       .  A
C1493      C1498   1.413       .  A
C1493      H1500   1.083       .  S
C1494      C1495   1.412       .  A
C1495      C1496   1.400       .  A
C1495      N1502   1.442       .  S
C1496      C1497   1.402       .  A
C1496      H1501   1.085   1_556  S
C1497      C1498   1.419       .  A
C1498      N1499   1.447       .  S
N1499      O1503   1.263       .  A
N1499      O1504   1.262       .  A
N1502      O1505   1.263       .  A
N1502      O1506   1.263       .  A
C1507      C1508   1.405       .  A
C1507      C1512   1.402       .  A
C1507      H1514   1.083       .  S
C1508      C1509   1.419       .  A
C1509      C1510   1.398       .  A
C1510      C1511   1.395       .  A
C1510      H1515   1.084       .  S
C1511      C1512   1.410       .  A
C1512      N1513   1.443       .  S
N1513      O1517   1.263       .  A
N1513      O1518   1.263       .  A
N1516      O1519   1.263       .  A
N1516      O1520   1.263       .  A
C1521      C1522   1.403       .  A
C1521      C1526   1.416       .  A
C1521      H1528   1.083       .  S
C1522      C1523   1.429       .  A
C1523      C1524   1.411       .  A
C1523      N1530   1.447       .  S
C1524      C1525   1.401       .  A
C1524      H1529   1.083       .  S
C1525      C1526   1.424       .  A
C1526      N1527   1.440       .  S
N1527      O1531   1.263       .  A
N1527      O1532   1.263       .  A
N1530      O1533   1.261       .  A
N1530      O1534   1.263       .  A
C1535      C1536   1.400       .  A
C1535      C1540   1.401   1_655  A
C1535      H1542   1.084       .  S
C1536      C1537   1.413       .  A
C1537      C1538   1.391   1_655  A
C1537      N1544   1.445       .  S
C1538      C1539   1.397       .  A
C1538      H1543   1.085       .  S
C1539      C1540   1.412       .  A
C1540      N1541   1.444       .  S
N1541      O1545   1.263       .  A
N1541      O1546   1.263       .  A
N1544      O1547   1.263       .  A
N1544      O1548   1.263       .  A
C1549      C1550   1.400       .  A
C1549      C1554   1.395       .  A
C1549      H1556   1.083       .  S
C1550      C1551   1.417       .  A
C1551      C1552   1.397       .  A
C1551      N1558   1.441       .  S
C1552      C1553   1.395       .  A
C1552      H1557   1.084       .  S
C1553      C1554   1.411       .  A
C1554      N1555   1.444       .  S
N1555      O1559   1.262       .  A
N1555      O1560   1.263       .  A
N1558      O1561   1.263       .  A
N1558      O1562   1.263       .  A
C1563      C1564   1.411       .  A
C1563      C1568   1.403       .  A
C1563      H1570   1.085       .  S
C1564      C1565   1.416       .  A
C1565      C1566   1.415       .  A
C1565      N1572   1.441       .  S
C1566      C1567   1.412       .  A
C1566      H1571   1.083       .  S
C1567      C1568   1.411       .  A
C1568      N1569   1.440       .  S
N1569      O1573   1.263       .  A
N1569      O1574   1.263       .  A
N1572      O1575   1.262       .  A
N1572      O1576   1.263       .  A
C1577      C1578   1.408       .  A
C1577      C1582   1.428       .  A
C1577      H1584   1.083       .  S
C1578      C1579   1.421       .  A
C1579      C1580   1.395       .  A
C1579      N1586   1.425       .  S
C1580      C1581   1.395       .  A
C1580      H1585   1.085       .  S
C1581      C1582   1.432       .  A
C1582      N1583   1.436       .  S
N1583      O1587   1.263       .  A
N1583      O1588   1.260       .  A
N1586      O1590   1.258       .  A
C1591      C1592   1.398       .  A
C1591      C1596   1.398       .  A
C1591      H1598   1.084       .  S
C1592      C1593   1.416       .  A
C1593      C1594   1.405       .  A
C1593      N1600   1.442       .  S
C1594      C1595   1.402       .  A
C1594      H1599   1.084       .  S
C1595      C1596   1.418       .  A
C1596      N1597   1.442       .  S
N1597      O1601   1.263       .  A
N1597      O1602   1.261       .  A
N1600      O1603   1.263       .  A
N1600      O1604   1.263       .  A
C1605      C1606   1.398       .  A
C1605      C1610   1.404       .  A
C1605      H1612   1.084       .  S
C1606      C1607   1.425       .  A
C1607      C1608   1.423       .  A
C1607      N1614   1.441       .  S
C1608      C1609   1.406       .  A
C1608      H1613   1.083       .  S
C1609      C1610   1.423       .  A
C1610      N1611   1.444       .  S
N1611      O1615   1.263       .  A
N1614      O1617   1.262       .  A
N1614      O1618   1.263       .  A
C1619      C1620   1.401       .  A
C1619      C1624   1.403       .  A
C1619      H1626   1.083       .  S
C1620      C1621   1.421       .  A
C1621      C1622   1.401       .  A
C1621      N1628   1.438       .  S
C1622      C1623   1.401       .  A
C1622      H1627   1.083       .  S
C1623      C1624   1.422       .  A
C1624      N1625   1.439       .  S
N1625      O1629   1.263       .  A
N1625      O1630   1.263       .  A
N1628      O1631   1.263       .  A
N1628      O1632   1.263       .  A
C1633      C1634   1.413       .  A
C1633      C1638   1.407       .  A
C1633      H1640   1.085       .  S
C1634      C1635   1.415       .  A
C1635      C1636   1.418       .  A
C1635      N1642   1.440       .  S
C1636      C1637   1.414       .  A
C1636      H1641   1.083       .  S
C1637      C1638   1.412       .  A
C1638      N1639   1.440       .  S
N1639      O1643   1.263       .  A
N1639      O1644   1.263       .  A
N1642      O1645   1.262       .  A
N1642      O1646   1.263       .  A
C1647      C1648   1.397       .  A
C1647      C1652   1.409       .  A
C1647      H1654   1.084       .  S
C1648      C1649   1.424       .  A
C1649      C1650   1.419       .  A
C1650      C1651   1.405       .  A
C1650      H1655   1.083       .  S
C1651      C1652   1.429       .  A
C1652      N1653   1.438       .  S
N1653      O1657   1.263       .  A
N1653      O1658   1.263       .  A
N1656      O1659   1.261       .  A
N1656      O1660   1.263       .  A
C1661      C1662   1.412       .  A
C1661      C1666   1.394       .  A
C1661      H1668   1.083       .  S
C1662      C1663   1.415       .  A
C1663      C1664   1.406       .  A
C1663      N1670   1.435       .  S
C1664      C1665   1.404       .  A
C1664      H1669   1.081       .  S
C1665      C1666   1.407       .  A
C1666      N1667   1.443       .  S
N1667      O1671   1.263       .  A
N1667      O1672   1.263       .  A
N1670      O1673   1.262       .  A
N1670      O1674   1.263       .  A
C1675      C1676   1.407       .  A
C1675      C1680   1.409       .  A
C1675      H1682   1.084       .  S
C1676      C1677   1.424       .  A
C1677      C1678   1.416       .  A
C1678      C1679   1.404       .  A
C1678      H1683   1.084       .  S
C1679      C1680   1.421       .  A
C1680      N1681   1.442       .  S
N1681      O1685   1.263       .  A
N1681      O1686   1.262       .  A
N1684      O1687   1.261       .  A
N1684      O1688   1.262       .  A
C1689      C1690   1.402       .  A
C1689      C1694   1.410       .  A
C1689      H1696   1.084       .  S
C1690      C1691   1.416       .  A
C1691      C1692   1.402       .  A
C1691      N1698   1.445       .  S
C1692      C1693   1.397       .  A
C1692      H1697   1.084       .  S
C1693      C1694   1.418       .  A
C1694      N1695   1.443       .  S
N1695      O1699   1.263       .  A
N1695      O1700   1.262       .  A
N1698      O1701   1.262       .  A
N1698      O1702   1.261       .  A
C1703      C1704   1.398       .  A
C1703      C1708   1.392       .  A
C1703      H1710   1.083       .  S
C1704      C1705   1.404       .  A
C1705      C1706   1.388       .  A
C1705      N1712   1.442       .  S
C1706      C1707   1.402       .  A
C1706      H1711   1.084       .  S
C1707      C1708   1.406       .  A
C1708      N1709   1.438       .  S
N1709      O1713   1.262       .  A
N1709      O1714   1.263       .  A
N1712      O1715   1.263       .  A
N1712      O1716   1.263       .  A
C1717      C1718   1.413       .  A
C1717      C1722   1.415   1_565  A
C1717      H1724   1.083       .  S
C1718      C1719   1.417       .  A
C1719      C1720   1.409   1_565  A
C1719      N1726   1.437       .  S
C1720      C1721   1.408       .  A
C1720      H1725   1.084       .  S
C1721      C1722   1.415       .  A
C1722      N1723   1.442       .  S
N1723      O1727   1.263   1_545  A
N1723      O1728   1.262       .  A
N1726      O1729   1.263       .  A
N1726      O1730   1.263       .  A
C1731      C1732   1.409       .  A
C1731      C1736   1.407       .  A
C1731      H1738   1.083       .  S
C1732      C1733   1.420       .  A
C1733      C1734   1.408       .  A
C1733      N1740   1.434       .  S
C1734      C1735   1.409       .  A
C1734      H1739   1.083       .  S
C1735      C1736   1.419       .  A
C1736      N1737   1.435       .  S
N1737      O1741   1.262       .  A
N1737      O1742   1.263       .  A
N1740      O1743   1.263       .  A
N1740      O1744   1.262       .  A
C1745      C1746   1.403       .  A
C1745      C1750   1.389       .  A
C1745      H1752   1.084       .  S
C1746      C1747   1.413       .  A
C1747      C1748   1.393       .  A
C1747      N1754   1.439       .  S
C1748      C1749   1.402       .  A
C1748      H1753   1.084       .  S
C1749      C1750   1.413       .  A
C1750      N1751   1.435       .  S
N1751      O1755   1.262       .  A
N1751      O1756   1.263       .  A
N1754      O1757   1.262       .  A
N1754      O1758   1.263       .  A
C1759      C1760   1.404       .  A
C1759      C1764   1.410       .  A
C1759      H1766   1.084       .  S
C1760      C1761   1.423       .  A
C1761      C1762   1.418       .  A
C1762      C1763   1.405       .  A
C1762      H1767   1.083       .  S
C1763      C1764   1.421       .  A
C1764      N1765   1.438       .  S
N1765      O1769   1.263       .  A
N1765      O1770   1.261       .  A
N1768      O1771   1.262       .  A
N1768      O1772   1.263       .  A
C1773      C1774   1.404       .  A
C1773      C1778   1.405       .  A
C1773      H1780   1.084       .  S
C1774      C1775   1.414       .  A
C1775      C1776   1.408       .  A
C1775      N1782   1.443       .  S
C1776      C1777   1.403       .  A
C1776      H1781   1.082       .  S
C1777      C1778   1.413       .  A
C1778      N1779   1.442       .  S
N1779      O1783   1.263       .  A
N1779      O1784   1.263       .  A
N1782      O1785   1.263       .  A
N1782      O1786   1.263       .  A
C1787      C1788   1.410       .  A
C1787      C1792   1.416       .  A
C1788      C1789   1.416       .  A
C1789      C1790   1.414       .  A
C1789      N1796   1.441       .  S
C1790      C1791   1.409       .  A
C1790      H1795   1.084       .  S
C1791      C1792   1.416       .  A
C1792      N1793   1.442       .  S
N1793      O1797   1.263   1_556  A
N1793      O1798   1.263       .  A
N1796      O1799   1.263       .  A
N1796      O1800   1.263       .  A
C1801      C1802   1.405       .  A
C1801      C1806   1.409       .  A
C1801      H1808   1.084       .  S
C1802      C1803   1.415       .  A
C1803      C1804   1.406       .  A
C1803      N1810   1.443       .  S
C1804      C1805   1.404       .  A
C1804      H1809   1.084       .  S
C1805      C1806   1.413       .  A
C1806      N1807   1.442       .  S
N1807      O1811   1.263       .  A
N1807      O1812   1.263       .  A
N1810      O1813   1.261       .  A
N1810      O1814   1.263       .  A
C1815      C1816   1.415       .  A
C1815      C1820   1.416       .  A
C1815      H1822   1.083       .  S
C1816      C1817   1.415       .  A
C1817      C1818   1.412       .  A
C1817      N1824   1.438       .  S
C1818      C1819   1.408       .  A
C1818      H1823   1.084       .  S
C1819      C1820   1.414       .  A
C1820      N1821   1.443       .  S
N1821      O1825   1.263       .  A
N1821      O1826   1.262       .  A
N1824      O1827   1.262       .  A
N1824      O1828   1.263       .  A
C1829      C1830   1.403       .  A
C1829      C1834   1.410       .  A
C1829      H1836   1.084       .  S
C1830      C1831   1.410       .  A
C1831      C1832   1.392       .  A
C1831      N1838   1.442       .  S
C1832      C1833   1.407       .  A
C1832      H1837   1.083       .  S
C1833      C1834   1.418       .  A
C1834      N1835   1.435       .  S
N1835      O1839   1.262       .  A
N1835      O1840   1.262       .  A
N1838      O1841   1.263       .  A
N1838      O1842   1.263       .  A
C1843      C1844   1.403       .  A
C1843      C1848   1.418       .  A
C1843      H1850   1.084       .  S
C1844      C1845   1.423       .  A
C1845      C1846   1.415       .  A
C1846      C1847   1.401       .  A
C1846      H1851   1.083       .  S
C1847      C1848   1.429       .  A
C1848      N1849   1.448       .  S
N1849      O1853   1.263       .  A
N1849      O1854   1.262       .  A
N1852      O1855   1.263       .  A
N1852      O1856   1.263       .  A
C1857      C1858   1.398       .  A
C1857      C1862   1.389       .  A
C1857      H1864   1.085       .  S
C1858      C1859   1.418       .  A
C1859      C1860   1.411       .  A
C1859      N1866   1.445       .  S
C1860      C1861   1.407       .  A
C1860      H1865   1.083       .  S
C1861      C1862   1.416       .  A
C1862      N1863   1.435       .  S
N1863      O1867   1.263       .  A
N1863      O1868   1.262       .  A
N1866      O1869   1.261       .  A
N1866      O1870   1.263       .  A
C1871      C1872   1.406       .  A
C1871      C1876   1.384       .  A
C1871      H1878   1.083       .  S
C1872      C1873   1.413       .  A
C1873      C1874   1.391       .  A
C1873      N1880   1.435       .  S
C1874      C1875   1.395       .  A
C1874      H1879   1.085       .  S
C1875      C1876   1.402       .  A
C1876      N1877   1.442       .  S
N1877      O1881   1.263       .  A
N1877      O1882   1.262       .  A
N1880      O1883   1.263       .  A
N1880      O1884   1.263       .  A
C1885      C1886   1.401   1_455  A
C1885      H1892   1.084       .  S
C1886      C1887   1.419       .  A
C1887      N1894   1.443       .  S
C1888      C1889   1.401       .  A
C1888      H1893   1.084       .  S
C1889      C1890   1.419   1_655  A
C1890      N1891   1.443       .  S
N1891      O1895   1.263       .  A
N1891      O1896   1.263       .  A
N1894      O1897   1.263       .  A
N1894      O1898   1.263   1_556  A
C1899      C1900   1.402   1_455  A
C1899      H1906   1.085       .  S
C1900      C1901   1.415       .  A
C1901      N1908   1.442       .  S
C1902      C1903   1.410       .  A
C1902      H1907   1.083       .  S
C1903      C1904   1.419   1_655  A
C1904      N1905   1.436       .  S
N1905      O1909   1.263       .  A
N1905      O1910   1.263       .  A
N1908      O1911   1.262       .  A
N1908      O1912   1.263       .  A
C1913      C1914   1.395       .  A
C1913      C1918   1.386       .  A
C1913      H1920   1.085       .  S
C1914      C1915   1.408   1_655  A
C1915      C1916   1.391       .  A
C1915      N1922   1.444       .  S
C1916      C1917   1.404   1_455  A
C1916      H1921   1.083       .  S
C1917      C1918   1.414       .  A
C1918      N1919   1.438       .  S
N1919      O1923   1.263       .  A
N1919      O1924   1.263       .  A
N1922      O1925   1.262       .  A
N1922      O1926   1.263       .  A
C1927      C1928   1.395       .  A
C1927      C1932   1.404       .  A
C1927      H1934   1.084       .  S
C1928      C1929   1.429       .  A
C1929      C1930   1.407       .  A
C1929      N1936   1.439       .  S
C1930      C1931   1.395       .  A
C1930      H1935   1.084       .  S
C1931      C1932   1.428       .  A
C1932      N1933   1.440       .  S
N1933      O1937   1.263       .  A
N1933      O1938   1.263       .  A
N1936      O1939   1.263       .  A
N1936      O1940   1.263       .  A
C1941      C1942   1.413       .  A
C1941      C1946   1.426       .  A
C1941      H1948   1.083       .  S
C1942      C1943   1.414       .  A
C1943      C1944   1.399       .  A
C1943      N1950   1.441       .  S
C1944      C1945   1.405       .  A
C1944      H1949   1.084       .  S
C1945      C1946   1.420       .  A
C1946      N1947   1.442       .  S
N1947      O1951   1.263       .  A
N1947      O1952   1.262       .  A
N1950      O1953   1.262       .  A
N1950      O1954   1.263       .  A
C1955      C1956   1.398       .  A
C1955      C1960   1.399       .  A
C1955      H1962   1.084       .  S
C1956      C1957   1.419       .  A
C1957      C1958   1.402       .  A
C1957      N1964   1.440       .  S
C1958      C1959   1.400       .  A
C1958      H1963   1.083       .  S
C1959      C1960   1.420       .  A
N1961      O1965   1.263       .  A
N1961      O1966   1.263       .  A
N1964      O1967   1.263       .  A
N1964      O1968   1.263       .  A
C1969      C1970   1.420       .  A
C1969      C1974   1.420       .  A
C1969      H1976   1.083       .  S
C1970      C1971   1.409       .  A
C1971      C1972   1.410       .  A
C1971      N1978   1.432       .  S
C1972      C1973   1.418       .  A
C1972      H1977   1.085       .  S
C1973      C1974   1.415       .  A
C1974      N1975   1.442       .  S
N1975      O1979   1.262       .  A
N1975      O1980   1.261       .  A
N1978      O1981   1.262       .  A
N1978      O1982   1.262       .  A
C1983      C1984   1.406       .  A
C1983      C1988   1.396       .  A
C1984      C1985   1.410       .  A
C1985      C1986   1.398       .  A
C1985      N1992   1.441       .  S
C1986      C1987   1.408       .  A
C1986      H1991   1.084       .  S
C1987      C1988   1.411       .  A
C1988      N1989   1.435       .  S
N1989      O1993   1.262       .  A
N1989      O1994   1.263       .  A
N1992      O1995   1.263       .  A
N1992      O1996   1.263       .  A
C1997      C1998   1.398       .  A
C1997      C2002   1.409       .  A
C1997      H2004   1.084       .  S
C1998      C1999   1.420       .  A
C1999      C2000   1.406       .  A
C1999      N2006   1.439       .  S
C2000      C2001   1.399       .  A
C2000      H2005   1.084       .  S
C2001      C2002   1.423       .  A
C2002      N2003   1.443       .  S
N2003      O2007   1.263       .  A
N2003      O2008   1.263       .  A
N2006      O2009   1.262       .  A
N2006      O2010   1.263       .  A
C2011      C2012   1.413       .  A
C2011      C2016   1.427       .  A
C2011      H2018   1.083       .  S
C2012      C2013   1.409       .  A
C2013      C2014   1.401       .  A
C2013      N2020   1.436       .  S
C2014      C2015   1.404       .  A
C2014      H2019   1.079       .  S
C2015      C2016   1.422       .  A
C2016      N2017   1.443       .  S
N2017      O2021   1.263       .  A
N2017      O2022   1.262       .  A
N2020      O2023   1.262       .  A
N2020      O2024   1.262       .  A
C2025      C2026   1.409       .  A
C2025      C2030   1.405       .  A
C2026      C2027   1.415       .  A
C2027      C2028   1.395       .  A
C2027      N2034   1.433       .  S
C2028      C2029   1.401       .  A
C2028      H2033   1.085       .  S
C2029      C2030   1.410       .  A
C2030      N2031   1.436       .  S
N2031      O2035   1.263       .  A
N2031      O2036   1.261       .  A
N2034      O2037   1.263       .  A
N2034      O2038   1.262       .  A
C2039      C2040   1.408       .  A
C2039      C2044   1.415       .  A
C2039      H2046   1.083       .  S
C2040      C2041   1.411       .  A
C2041      C2042   1.391       .  A
C2041      N2048   1.441       .  S
C2042      C2043   1.402       .  A
C2042      H2047   1.085       .  S
C2043      C2044   1.416       .  A
C2044      N2045   1.445       .  S
N2045      O2049   1.263       .  A
N2045      O2050   1.262       .  A
N2048      O2051   1.263       .  A
N2048      O2052   1.263       .  A
C2053      C2054   1.412       .  A
C2053      C2058   1.419       .  A
C2053      H2060   1.084       .  S
C2054      C2055   1.410       .  A
C2055      C2056   1.409       .  A
C2055      N2062   1.441       .  S
C2056      C2057   1.415       .  A
C2056      H2061   1.084       .  S
C2057      C2058   1.416       .  A
C2058      N2059   1.436       .  S
N2059      O2063   1.263       .  A
N2059      O2064   1.262       .  A
N2062      O2065   1.263       .  A
N2062      O2066   1.263       .  A
C2067      C2068   1.399       .  A
C2067      C2072   1.390   1_455  A
C2067      H2074   1.085       .  S
C2068      C2069   1.403       .  A
C2069      C2070   1.390   1_455  A
C2069      N2076   1.441       .  S
C2070      C2071   1.404       .  A
C2070      H2075   1.083       .  S
C2071      C2072   1.409       .  A
C2072      N2073   1.442       .  S
N2073      O2077   1.262       .  A
N2073      O2078   1.262       .  A
N2076      O2079   1.262       .  A
N2076      O2080   1.263       .  A
