geometry optimzed in LAMMPS
_audit_creation_date              2020-12-01 
_audit_creation_method            'lammps2cif' 
_symmetry_space_group_name_H-M    'P1' 
_symmetry_Int_Tables_number       1 
_symmetry_cell_setting            triclinic 
loop_ 
_symmetry_equiv_pos_as_xyz 
  x,y,z 
_cell_length_a                    52.2609406 
_cell_length_b                    51.959829791993926 
_cell_length_c                    57.66952756577222 
_cell_angle_alpha                 90.04716834448519 
_cell_angle_beta                  89.9683835666195 
_cell_angle_gamma                 89.90488119654555 
loop_ 
_atom_site_label 
_atom_site_type_symbol 
_atom_site_fract_x 
_atom_site_fract_y 
_atom_site_fract_z 
_atom_site_charge 
O1          O  0.43949503  0.71446438  0.09487716    -0.81300
C2          C  0.38433042  0.67888248  0.17265442     0.98100
O3          O  0.37490922  0.68220436  0.15267462    -0.70400
O4          O  0.38225360  0.72812258  0.13665703    -0.74000
Al5        Al  0.38954781  0.69544503  0.12442098     1.49000
C6          C  0.39383638  0.74883506  0.13289206     0.93300
O7          O  0.44761303  0.73136121  0.15864488    -0.80200
O8          O  0.45938789  0.66202490  0.13146665    -0.73800
Al9        Al  0.44263514  0.72180651  0.12693745     1.90100
O10         O  0.45520556  0.69205647  0.17071159    -0.72800
O11         O  0.41317225  0.64385151  0.13919951    -0.72700
O12         O  0.40819882  0.67738424  0.17539816    -0.78400
O13         O  0.39217434  0.66217550  0.11100813    -0.76600
O14         O  0.42167438  0.69598059  0.13456383    -1.12700
O15         O  0.39784401  0.70855466  0.09419304    -0.71900
C16         C  0.41894388  0.71152115  0.08367780     0.98800
C17         C  0.45494947  0.71604432  0.17430610     0.95200
Al18       Al  0.43309893  0.67087880  0.15259480     1.55600
O19         O  0.41663370  0.74848013  0.12553519    -0.76500
C20         C  0.39899574  0.64213483  0.12157199     0.99400
C21         C  0.47700706  0.67707505  0.12523092     0.94300
O22         O  0.47369878  0.70122745  0.12634177    -0.81800
O23         O  0.46151324  0.69204008  0.87370873    -0.81300
C24         C  0.36964811  0.68349530  0.82186794     0.98100
O25         O  0.38843680  0.66818990  0.82099848    -0.70400
O26         O  0.43053128  0.69348856  0.81247148    -0.74000
Al27       Al  0.42143629  0.66904322  0.83535729     1.49000
C28         C  0.44678167  0.71120080  0.81468490     0.93300
O29         O  0.41375953  0.74457164  0.85616857    -0.80200
O30         O  0.39545516  0.68807309  0.89897332    -0.73800
Al31       Al  0.43616520  0.71671511  0.86458531     1.90100
O32         O  0.37977319  0.72915127  0.87332562    -0.72800
O33         O  0.37659445  0.65670117  0.86714356    -0.72700
O34         O  0.36619924  0.69807028  0.83915940    -0.78400
O35         O  0.41339912  0.64136650  0.85566543    -0.76600
O36         O  0.41342825  0.69289978  0.85618729    -1.12700
O37         O  0.45598616  0.66508036  0.84497363    -0.71900
C38         C  0.46942882  0.67345037  0.86150003     0.98800
C39         C  0.39151245  0.74773168  0.86425593     0.95200
Al40       Al  0.38218177  0.69299636  0.86865219     1.55600
O41         O  0.45180780  0.72031552  0.83450571    -0.76500
C42         C  0.39142695  0.63786103  0.86407564     0.99400
C43         C  0.41169365  0.70251576  0.90871023     0.94300
O44         O  0.42561587  0.71743273  0.89669655    -0.81800
O45         O  0.72180707  0.55685320  0.09121602    -0.81300
C46         C  0.68921111  0.60790170  0.17263160     0.98100
O47         O  0.69194103  0.61833627  0.15293276    -0.70400
O48         O  0.73724763  0.61162790  0.13502274    -0.74000
Al49       Al  0.70399632  0.60527918  0.12359002     1.49000
C50         C  0.75753549  0.59969264  0.13030982     0.93300
O51         O  0.73940742  0.54303483  0.15426844    -0.80200
O52         O  0.66919809  0.53601928  0.12846956    -0.73800
Al53       Al  0.72931579  0.55121536  0.12301648     1.90100
O54         O  0.70034938  0.53571695  0.16640167    -0.72800
O55         O  0.65314777  0.58239359  0.13967709    -0.72700
O56         O  0.68829476  0.58374544  0.17454972    -0.78400
O57         O  0.67022557  0.60379440  0.11112404    -0.76600
O58         O  0.70442095  0.57241590  0.13232550    -1.12700
O59         O  0.71585222  0.59865690  0.09251018    -0.71900
C60         C  0.71902098  0.57813805  0.08095104     0.98800
C61         C  0.72418351  0.53293680  0.16867192     0.95200
Al62       Al  0.67984370  0.56051553  0.15066135     1.55600
O63         O  0.75654332  0.57684523  0.12267716    -0.76500
C64         C  0.65072604  0.59705038  0.12241525     0.99400
C65         C  0.68339145  0.51789197  0.12158582     0.94300
O66         O  0.70754194  0.52078246  0.12110569    -0.81800
O67         O  0.70584388  0.53531733  0.87143802    -0.81300
C68         C  0.69629651  0.62464911  0.81622100     0.98100
O69         O  0.68209379  0.60502979  0.81546589    -0.70400
O70         O  0.70754163  0.56288249  0.80941757    -0.74000
Al71       Al  0.68258554  0.57305538  0.83132052     1.49000
C72         C  0.72572933  0.54737658  0.81250527     0.93300
O73         O  0.75728016  0.58396511  0.85355043    -0.80200
O74         O  0.69928021  0.60209319  0.89475311    -0.73800
Al75       Al  0.72986319  0.56094827  0.86193751     1.90100
O76         O  0.73995613  0.61829837  0.86891802    -0.72800
O77         O  0.66795287  0.61913937  0.86193060    -0.72700
O78         O  0.70907203  0.63003732  0.83419605    -0.78400
O79         O  0.65392746  0.58187024  0.85023752    -0.76600
O80         O  0.70553638  0.58273977  0.85235174    -1.12700
O81         O  0.67886230  0.53902818  0.84258074    -0.71900
C82         C  0.68736448  0.52661854  0.85970922     0.98800
C83         C  0.75938352  0.60664665  0.86128903     0.95200
Al84       Al  0.70418119  0.61460385  0.86398542     1.55600
O85         O  0.73477487  0.54392905  0.83257458    -0.76500
C86         C  0.64962998  0.60388373  0.85853851     0.99400
C87         C  0.71423842  0.58674062  0.90510300     0.94300
O88         O  0.72962402  0.57277868  0.89361681    -0.81800
O89         O  0.56406856  0.27157205  0.09173363    -0.81300
C90         C  0.61238472  0.30155255  0.17510255     0.98100
O91         O  0.62331318  0.29979269  0.15551927    -0.70400
O92         O  0.61733932  0.25497037  0.13623256    -0.74000
Al93       Al  0.61121480  0.28860667  0.12552629     1.49000
C94         C  0.60570458  0.23480101  0.13055678     0.93300
O95         O  0.54876443  0.25200938  0.15386545    -0.80200
O96         O  0.54268852  0.32348082  0.12982179    -0.73800
Al97       Al  0.55761562  0.26319976  0.12309869     1.90100
O98         O  0.54062574  0.29078219  0.16682152    -0.72800
O99         O  0.58823152  0.33907196  0.14293830    -0.72700
O100        O  0.58829918  0.30220044  0.17649338    -0.78400
O101        O  0.60971717  0.32296494  0.11394044    -0.76600
O102        O  0.57836891  0.28783402  0.13354389    -1.12700
O103        O  0.60561556  0.27734104  0.09398892    -0.71900
C104        C  0.58554585  0.27407019  0.08200641     0.98800
C105        C  0.53842179  0.26670107  0.16862309     0.95200
Al106      Al  0.56600027  0.31184184  0.15237228     1.55600
O107        O  0.58316423  0.23593462  0.12258581    -0.76500
C108        C  0.60301922  0.34214925  0.12589272     0.99400
C109        C  0.52515163  0.30977250  0.12130399     0.94300
O110        O  0.52750846  0.28540288  0.12078381    -0.81800
O111        O  0.54803509  0.29099334  0.87074217    -0.81300
C112        C  0.64076215  0.30535568  0.82109963     0.98100
O113        O  0.62182952  0.32051813  0.82102154    -0.70400
O114        O  0.58056169  0.29433133  0.81078923    -0.74000
Al115      Al  0.58860256  0.31773932  0.83490639     1.49000
C116        C  0.56583299  0.27517463  0.81187026     0.93300
O117        O  0.59885195  0.24073036  0.85368444    -0.80200
O118        O  0.61480624  0.29617749  0.89787790    -0.73800
Al119      Al  0.57512077  0.26785583  0.86187569     1.90100
O120        O  0.63207950  0.25727992  0.87096501    -0.72800
O121        O  0.63273498  0.32973650  0.86739713    -0.72700
O122        O  0.64433227  0.28988450  0.83770296    -0.78400
O123        O  0.59550687  0.34453605  0.85664552    -0.76600
O124        O  0.59708241  0.29292611  0.85476434    -1.12700
O125        O  0.55372116  0.32017077  0.84397116    -0.71900
C126        C  0.53983127  0.31006280  0.85932855     0.98800
C127        C  0.62100820  0.23822331  0.86213490     0.95200
Al128      Al  0.62825303  0.29325474  0.86740204     1.55600
O129        O  0.56113156  0.26456136  0.83115721    -0.76500
C130        C  0.61732543  0.34827228  0.86532668     0.99400
C131        C  0.59877467  0.28096396  0.90696215     0.94300
O132        O  0.58466750  0.26685036  0.89429610    -0.81800
O133        O  0.28123351  0.42941955  0.08838038    -0.81300
C134        C  0.31484475  0.38070215  0.17088739     0.98100
O135        O  0.31210131  0.36980112  0.15138817    -0.70400
O136        O  0.26639587  0.37497630  0.13334098    -0.74000
Al137      Al  0.29951253  0.38198688  0.12182539     1.49000
C138        C  0.24601941  0.38608474  0.12744061     0.93300
O139        O  0.26084451  0.44191967  0.15075838    -0.80200
O140        O  0.33101788  0.45300166  0.12618373    -0.73800
Al141      Al  0.27231817  0.43491181  0.11987692     1.90100
O142        O  0.29887999  0.45174445  0.16424370    -0.72800
O143        O  0.34935031  0.40765907  0.13748028    -0.72700
O144        O  0.31429933  0.40488573  0.17243583    -0.78400
O145        O  0.33321139  0.38451001  0.10949210    -0.76600
O146        O  0.29782349  0.41495407  0.12995601    -1.12700
O147        O  0.28748370  0.38763305  0.09055095    -0.71900
C148        C  0.28407248  0.40783455  0.07856693     0.98800
C149        C  0.27481318  0.45149433  0.16638163     0.95200
Al150      Al  0.32143468  0.42826688  0.14844601     1.55600
O151        O  0.24664240  0.40833427  0.11867240    -0.76500
C152        C  0.35238415  0.39239812  0.12064728     0.99400
C153        C  0.31620301  0.47010705  0.11845885     0.94300
O154        O  0.29220957  0.46649831  0.11846063    -0.81800
O155        O  0.30402826  0.45019873  0.87122938    -0.81300
C156        C  0.31341098  0.36211703  0.81451671     0.98100
O157        O  0.32891821  0.38068869  0.81531987    -0.70400
O158        O  0.30470021  0.42367288  0.80866006    -0.74000
Al159      Al  0.32823299  0.41236307  0.83154856     1.49000
C160        C  0.28638929  0.43921352  0.81121769     0.93300
O161        O  0.25231429  0.40368679  0.84988146    -0.80200
O162        O  0.30704423  0.38229323  0.89329807    -0.73800
Al163      Al  0.27977177  0.42545315  0.86016441     1.90100
O164        O  0.26721591  0.36833974  0.86550067    -0.72800
O165        O  0.33972070  0.36490954  0.86126744    -0.72700
O166        O  0.29934730  0.35669775  0.83167649    -0.78400
O167        O  0.35542036  0.40227598  0.85171673    -0.76600
O168        O  0.30384266  0.40304398  0.85127090    -1.12700
O169        O  0.33224463  0.44594493  0.84342132    -0.71900
C170        C  0.32338554  0.45838986  0.86035620     0.98800
C171        C  0.24892494  0.38099359  0.85699696     0.95200
Al172      Al  0.30339196  0.37082688  0.86208161     1.55600
O173        O  0.27687465  0.44299626  0.83104304    -0.76500
C174        C  0.35870941  0.37966924  0.85906336     0.99400
C175        C  0.29198472  0.39790841  0.90327664     0.94300
O176        O  0.27785131  0.41282119  0.89148178    -0.81800
O177        O  0.71623256  0.42702092  0.39634459    -0.81300
C178        C  0.68900293  0.37094933  0.31617910     0.98100
O179        O  0.69037778  0.36183895  0.33645183    -0.70400
O180        O  0.73541109  0.37036518  0.35445486    -0.74000
Al181      Al  0.70181896  0.37683000  0.36513265     1.49000
C182        C  0.75512746  0.38253796  0.36044814     0.93300
O183        O  0.73908742  0.43679149  0.33445597    -0.80200
O184        O  0.66736148  0.44648482  0.35499352    -0.73800
Al185      Al  0.72649287  0.43082919  0.36503381     1.90100
O186        O  0.70130736  0.44280461  0.31859622    -0.72800
O187        O  0.65156689  0.39941602  0.34686467    -0.72700
O188        O  0.68846769  0.39491172  0.31299104    -0.78400
O189        O  0.66783296  0.37941300  0.37678892    -0.76600
O190        O  0.70239901  0.40920763  0.35513320    -1.12700
O191        O  0.71317071  0.38485164  0.39597173    -0.71900
C192        C  0.71487296  0.40585817  0.40699374     0.98800
C193        C  0.72537824  0.44471472  0.31792208     0.95200
Al194      Al  0.67908200  0.41998479  0.33505836     1.55600
O195        O  0.75333192  0.40520997  0.36833481    -0.76500
C196        C  0.64860363  0.38630727  0.36511416     0.99400
C197        C  0.68126093  0.46457030  0.36228417     0.94300
O198        O  0.70523170  0.46141788  0.36406684    -0.81800
O199        O  0.70454828  0.44859825  0.61671358    -0.81300
C200        C  0.69423256  0.35604462  0.66782375     0.98100
O201        O  0.67876591  0.37477535  0.66793811    -0.70400
O202        O  0.70391587  0.41704300  0.67750566    -0.74000
Al203      Al  0.68042288  0.40813513  0.65386392     1.49000
C204        C  0.72235144  0.43257365  0.67591822     0.93300
O205        O  0.75663418  0.40071200  0.63434262    -0.80200
O206        O  0.70163412  0.38155873  0.59123813    -0.73800
Al207      Al  0.72880030  0.42301291  0.62596781     1.90100
O208        O  0.74176620  0.36606702  0.61768236    -0.72800
O209        O  0.66911141  0.36291848  0.62198176    -0.72700
O210        O  0.70978223  0.35282242  0.65128075    -0.78400
O211        O  0.65384668  0.40030413  0.63246549    -0.76600
O212        O  0.70498227  0.40006966  0.63379591    -1.12700
O213        O  0.67678206  0.44312052  0.64458429    -0.71900
C214        C  0.68568477  0.45662200  0.62832464     0.98800
C215        C  0.76017858  0.37845122  0.62622347     0.95200
Al216      Al  0.70556011  0.36853504  0.62155278     1.55600
O217        O  0.73192376  0.43785187  0.65633560    -0.76500
C218        C  0.65042249  0.37821433  0.62397539     0.99400
C219        C  0.71559613  0.39838591  0.58175540     0.94300
O220        O  0.72983455  0.41289733  0.59383257    -0.81800
O221        O  0.56722156  0.71420816  0.39698516    -0.81300
C222        C  0.61498204  0.68154632  0.31450109     0.98100
O223        O  0.62583072  0.68254291  0.33414793    -0.70400
O224        O  0.62268787  0.72720772  0.35422238    -0.74000
Al225      Al  0.61395424  0.69388134  0.36418630     1.49000
C226        C  0.61222514  0.74826453  0.35922967     0.93300
O227        O  0.55495577  0.73524052  0.33543088    -0.80200
O228        O  0.54282802  0.66441833  0.35888011    -0.73800
Al229      Al  0.56219335  0.72328020  0.36586156     1.90100
O230        O  0.54438006  0.69732896  0.32173557    -0.72800
O231        O  0.58744934  0.64512915  0.34647011    -0.72700
O232        O  0.59091373  0.68188455  0.31295395    -0.78400
O233        O  0.61022863  0.65951046  0.37528419    -0.76600
O234        O  0.58135737  0.69711359  0.35566709    -1.12700
O235        O  0.60819474  0.70478128  0.39569946    -0.71900
C236        C  0.58800796  0.70948095  0.40715811     0.98800
C237        C  0.54390695  0.72155852  0.32046610     0.95200
Al238      Al  0.56756482  0.67411331  0.33668022     1.55600
O239        O  0.58948071  0.74860259  0.36678599    -0.76500
C240        C  0.60210280  0.64090147  0.36339147     0.99400
C241        C  0.52604621  0.67962916  0.36666750     0.94300
O242        O  0.53036290  0.70368225  0.36738204    -0.81800
O243        O  0.54636982  0.69415975  0.61440071    -0.81300
C244        C  0.63530324  0.68368519  0.66882818     0.98100
O245        O  0.61660018  0.66820879  0.66882777    -0.70400
O246        O  0.57356015  0.69095585  0.67590398    -0.74000
Al247      Al  0.58470638  0.66828341  0.65268864     1.49000
C248        C  0.55826574  0.70952718  0.67446709     0.93300
O249        O  0.59431046  0.74489974  0.63542118    -0.80200
O250        O  0.61252716  0.68917694  0.59107272    -0.73800
Al251      Al  0.57161224  0.71784679  0.62536152     1.90100
O252        O  0.62806243  0.72971278  0.61761928    -0.72800
O253        O  0.63142405  0.65663001  0.62233790    -0.72700
O254        O  0.64036587  0.69744219  0.65134482    -0.78400
O255        O  0.59432237  0.64138086  0.63222655    -0.76600
O256        O  0.59369892  0.69311264  0.63330158    -1.12700
O257        O  0.55120584  0.66414120  0.64065854    -0.71900
C258        C  0.53863682  0.67386204  0.62418238     0.98800
C259        C  0.61650999  0.74819169  0.62721884     0.95200
Al260      Al  0.62535992  0.69322667  0.62152772     1.55600
O261        O  0.55470838  0.72053404  0.65517831    -0.76500
C262        C  0.61651868  0.63774136  0.62455400     0.99400
C263        C  0.59679996  0.70438443  0.58153003     0.94300
O264        O  0.58329814  0.71967151  0.59364630    -0.81800
O265        O  0.27961132  0.55776950  0.39650214    -0.81300
C266        C  0.31250525  0.60604184  0.31432011     0.98100
O267        O  0.31015241  0.61721588  0.33376306    -0.70400
O268        O  0.26581162  0.61171698  0.35290780    -0.74000
Al269      Al  0.29897870  0.60517563  0.36363376     1.49000
C270        C  0.24528740  0.60014076  0.35714446     0.93300
O271        O  0.26339012  0.54287392  0.33341326    -0.80200
O272        O  0.33324976  0.53582359  0.36071029    -0.73800
Al273      Al  0.27290163  0.55150197  0.36469437     1.90100
O274        O  0.30246747  0.53396830  0.32234834    -0.72800
O275        O  0.34983546  0.58184431  0.34758100    -0.72700
O276        O  0.31434789  0.58185253  0.31308628    -0.78400
O277        O  0.33287203  0.60407204  0.37561006    -0.76600
O278        O  0.29821808  0.57217597  0.35545451    -1.12700
O279        O  0.28780940  0.59917756  0.39480662    -0.71900
C280        C  0.28340868  0.57905159  0.40650155     0.98800
C281        C  0.27862099  0.53217254  0.31935297     0.95200
Al282      Al  0.32289708  0.55947052  0.33755235     1.55600
O283        O  0.24584193  0.57710794  0.36415373    -0.76500
C284        C  0.35226558  0.59748888  0.36413502     0.99400
C285        C  0.31864512  0.51825324  0.36804113     0.94300
O286        O  0.29450317  0.52120789  0.36764833    -0.81800
O287        O  0.30627302  0.53738580  0.61403875    -0.81300
C288        C  0.31972470  0.62752753  0.66844707     0.98100
O289        O  0.33478160  0.60853244  0.66714549    -0.70400
O290        O  0.30958174  0.56626247  0.67562964    -0.74000
Al291      Al  0.33233028  0.57613262  0.65175008     1.49000
C292        C  0.29058635  0.55142229  0.67413900     0.93300
O293        O  0.25552932  0.58537021  0.63468875    -0.80200
O294        O  0.30928083  0.60583109  0.59072319    -0.73800
Al295      Al  0.28274077  0.56309309  0.62484770     1.90100
O296        O  0.27050775  0.62054269  0.61910634    -0.72800
O297        O  0.34287041  0.62276670  0.62145635    -0.72700
O298        O  0.30359079  0.63184641  0.65254145    -0.78400
O299        O  0.35831381  0.58486523  0.62991726    -0.76600
O300        O  0.30716765  0.58538323  0.63280827    -1.12700
O301        O  0.33526804  0.54184497  0.64097803    -0.71900
C302        C  0.32558645  0.52891405  0.62474348     0.98800
C303        C  0.25210997  0.60793769  0.62731284     0.95200
Al304      Al  0.30657592  0.61749596  0.62188218     1.55600
O305        O  0.28024682  0.54706861  0.65471229    -0.76500
C306        C  0.36146468  0.60728339  0.62205886     0.99400
C307        C  0.29452743  0.58969053  0.58117403     0.94300
O308        O  0.28077450  0.57475073  0.59328191    -0.81800
O309        O  0.43416032  0.27235767  0.39812073    -0.81300
C310        C  0.38907984  0.30659168  0.31461064     0.98100
O311        O  0.37761803  0.30462041  0.33390187    -0.70400
O312        O  0.38129609  0.25894797  0.35227416    -0.74000
Al313      Al  0.38850596  0.29211157  0.36378583     1.49000
C314        C  0.39196809  0.23819714  0.35795636     0.93300
O315        O  0.44910478  0.25338719  0.33607993    -0.80200
O316        O  0.45885077  0.32376204  0.36164801    -0.73800
Al317      Al  0.44082424  0.26430271  0.36678789     1.90100
O318        O  0.45981523  0.29172729  0.32358267    -0.72800
O319        O  0.41444656  0.34230919  0.34873803    -0.72700
O320        O  0.41317562  0.30657068  0.31368221    -0.78400
O321        O  0.39116272  0.32569240  0.37629277    -0.76600
O322        O  0.42147424  0.29016065  0.35647187    -1.12700
O323        O  0.39289295  0.28018814  0.39505829    -0.71900
C324        C  0.41254059  0.27601054  0.40733029     0.98800
C325        C  0.45972218  0.26756095  0.32118792     0.95200
Al326      Al  0.43541218  0.31408585  0.33848068     1.55600
O327        O  0.41424064  0.23841724  0.36652329    -0.76500
C328        C  0.39947334  0.34512486  0.36573145     0.99400
C329        C  0.47557582  0.30890094  0.36993265     0.94300
O330        O  0.47202080  0.28470429  0.36978595    -0.81800
O331        O  0.46224278  0.29501862  0.61487830    -0.81300
C332        C  0.37227465  0.30072192  0.66898878     0.98100
O333        O  0.39095878  0.31613620  0.67017892    -0.70400
O334        O  0.43431120  0.29282998  0.67703612    -0.74000
Al335      Al  0.42337032  0.31697818  0.65463705     1.49000
C336        C  0.45100512  0.27560374  0.67430010     0.93300
O337        O  0.41662019  0.24152616  0.63391344    -0.80200
O338        O  0.39549567  0.29767967  0.59172003    -0.73800
Al339      Al  0.43810747  0.26981323  0.62477103     1.90100
O340        O  0.38174029  0.25614799  0.61749714    -0.72800
O341        O  0.37719849  0.32903576  0.62349591    -0.72700
O342        O  0.36839700  0.28713900  0.65127372    -0.78400
O343        O  0.41377886  0.34465847  0.63493529    -0.76600
O344        O  0.41515317  0.29315611  0.63385007    -1.12700
O345        O  0.45748071  0.32216277  0.64364898    -0.71900
C346        C  0.47024479  0.31394431  0.62656503     0.98800
C347        C  0.39427584  0.23783248  0.62625473     0.95200
Al348      Al  0.38349503  0.29257888  0.62201970     1.55600
O349        O  0.45521047  0.26648281  0.65431834    -0.76500
C350        C  0.39204042  0.34795598  0.62603621     0.99400
C351        C  0.41117559  0.28306707  0.58157122     0.94300
O352        O  0.42639832  0.26882944  0.59295701    -0.81800
O353        O  0.94187100  0.20941655  0.59357553    -0.81300
C354        C  0.88840209  0.17777457  0.67390020     0.98100
O355        O  0.87900692  0.17978358  0.65377127    -0.70400
O356        O  0.88541089  0.22562731  0.63580985    -0.74000
Al357      Al  0.89310725  0.19220871  0.62498382     1.49000
C358        C  0.89681255  0.24609847  0.63044993     0.93300
O359        O  0.95279969  0.23117549  0.65587472    -0.80200
O360        O  0.96304082  0.15974523  0.63381944    -0.73800
Al361      Al  0.94600235  0.21903313  0.62509691     1.90100
O362        O  0.95963174  0.19297340  0.67094075    -0.72800
O363        O  0.91700415  0.14218525  0.64274755    -0.72700
O364        O  0.91226073  0.17863673  0.67691306    -0.78400
O365        O  0.89670800  0.15830846  0.61302637    -0.76600
O366        O  0.92534963  0.19391164  0.63484818    -1.12700
O367        O  0.90031247  0.20392004  0.59406255    -0.71900
C368        C  0.92104705  0.20615761  0.58291156     0.98800
C369        C  0.96172123  0.21716996  0.67185125     0.95200
Al370      Al  0.93703098  0.17037475  0.65442870     1.55600
O371        O  0.91961198  0.24535361  0.62298806    -0.76500
C372        C  0.90356508  0.13905908  0.62475078     0.99400
C373        C  0.98038088  0.17421254  0.62609462     0.94300
O374        O  0.97688473  0.19832421  0.62491726    -0.81800
O375        O  0.96183269  0.19436106  0.37169931    -0.81300
C376        C  0.86841913  0.18168732  0.32262142     0.98100
O377        O  0.88818439  0.16769224  0.32100943    -0.70400
O378        O  0.93014839  0.19344412  0.31170931    -0.74000
Al379      Al  0.92141922  0.16907707  0.33489664     1.49000
C380        C  0.94490376  0.21251994  0.31358289     0.93300
O381        O  0.91143491  0.24502840  0.35602314    -0.80200
O382        O  0.89643030  0.18748570  0.39860737    -0.73800
Al383      Al  0.93511024  0.21782867  0.36354143     1.90100
O384        O  0.87858671  0.22816819  0.37367301    -0.72800
O385        O  0.87736333  0.15595322  0.36738601    -0.72700
O386        O  0.86523969  0.19672854  0.33963745    -0.78400
O387        O  0.91406454  0.14120470  0.35531282    -0.76600
O388        O  0.91310250  0.19304775  0.35563609    -1.12700
O389        O  0.95601448  0.16550039  0.34444784    -0.71900
C390        C  0.96947810  0.17496914  0.36042821     0.98800
C391        C  0.88937575  0.24734535  0.36470094     0.95200
Al392      Al  0.88215446  0.19221324  0.36873250     1.55600
O393        O  0.94929152  0.22232074  0.33321782    -0.76500
C394        C  0.89241493  0.13737010  0.36423972     0.99400
C395        C  0.91273593  0.20205880  0.40806761     0.94300
O396        O  0.92573151  0.21769563  0.39595617    -0.81800
O397        O  0.06935267  0.77101679  0.59376000    -0.81300
C398        C  0.11459902  0.80423535  0.67723658     0.98100
O399        O  0.12663729  0.80145406  0.65825348    -0.70400
O400        O  0.12285663  0.75676166  0.63852627    -0.74000
Al401      Al  0.11581639  0.79019164  0.62774670     1.49000
C402        C  0.11216036  0.73620470  0.63262127     0.93300
O403        O  0.05591243  0.75191559  0.65631543    -0.80200
O404        O  0.04510949  0.82192661  0.62909013    -0.73800
Al405      Al  0.06342361  0.76259472  0.62515510     1.90100
O406        O  0.04435024  0.79055375  0.66770286    -0.72800
O407        O  0.08960823  0.84092302  0.64256090    -0.72700
O408        O  0.09054984  0.80578501  0.67746579    -0.78400
O409        O  0.11432504  0.82424657  0.61610354    -0.76600
O410        O  0.08281668  0.78860094  0.63505252    -1.12700
O411        O  0.11061423  0.77923213  0.59582813    -0.71900
C412        C  0.09052674  0.77526398  0.58388571     0.98800
C413        C  0.04485065  0.76646584  0.67079823     0.95200
Al414      Al  0.06861578  0.81281843  0.65261705     1.55600
O415        O  0.08980467  0.73661729  0.62444199    -0.76500
C416        C  0.10596040  0.84366408  0.62669228     0.99400
C417        C  0.02821704  0.80650463  0.62197313     0.94300
O418        O  0.03204982  0.78242372  0.62286953    -0.81800
O419        O  0.04451279  0.79309489  0.37253892    -0.81300
C420        C  0.13599000  0.80262053  0.32066766     0.98100
O421        O  0.11730504  0.81803066  0.32026416    -0.70400
O422        O  0.07616645  0.79130662  0.31159857    -0.74000
Al423      Al  0.08425964  0.81612784  0.33433357     1.49000
C424        C  0.06030889  0.77318411  0.31361686     0.93300
O425        O  0.09232710  0.74047953  0.35610976    -0.80200
O426        O  0.11125281  0.79741937  0.39783711    -0.73800
Al427      Al  0.07003850  0.76853721  0.36386579     1.90100
O428        O  0.12682190  0.75648753  0.37184221    -0.72800
O429        O  0.12871807  0.82948157  0.36600993    -0.72700
O430        O  0.13947379  0.78770145  0.33764392    -0.78400
O431        O  0.09143405  0.84391436  0.35481311    -0.76600
O432        O  0.09257204  0.79243719  0.35523550    -1.12700
O433        O  0.04942740  0.81933734  0.34328215    -0.71900
C434        C  0.03610853  0.81101254  0.35987096     0.98800
C435        C  0.11458774  0.73745805  0.36409153     0.95200
Al436      Al  0.12391809  0.79273406  0.36732932     1.55600
O437        O  0.05488802  0.76427839  0.33347454    -0.76500
C438        C  0.11323189  0.84798144  0.36344631     0.99400
C439        C  0.09530021  0.78297388  0.40790325     0.94300
O440        O  0.08061950  0.76848429  0.39614017    -0.81800
O441        O  0.78376705  0.92686464  0.59482142    -0.81300
C442        C  0.81955800  0.87736303  0.67533677     0.98100
O443        O  0.81617449  0.86626127  0.65597285    -0.70400
O444        O  0.77038609  0.87223268  0.63878544    -0.74000
Al445      Al  0.80319619  0.87872081  0.62662269     1.49000
C446        C  0.74988908  0.88398418  0.63456938     0.93300
O447        O  0.76885215  0.94055489  0.65826118    -0.80200
O448        O  0.83771420  0.94765671  0.62907070    -0.73800
Al449      Al  0.77753707  0.93263605  0.62661846     1.90100
O450        O  0.80828735  0.94935729  0.66827554    -0.72800
O451        O  0.85443933  0.90197079  0.64100430    -0.72700
O452        O  0.82055153  0.90157032  0.67667178    -0.78400
O453        O  0.83643963  0.88017117  0.61322073    -0.76600
O454        O  0.80288464  0.91166390  0.63504686    -1.12700
O455        O  0.79043825  0.88510059  0.59582406    -0.71900
C456        C  0.78673609  0.90566421  0.58447524     0.98800
C457        C  0.78457898  0.95072303  0.67215689     0.95200
Al458      Al  0.82811830  0.92407347  0.65224177     1.55600
O459        O  0.75051488  0.90693166  0.62722758    -0.76500
C460        C  0.85628726  0.88719763  0.62378926     0.99400
C461        C  0.82334142  0.96554952  0.62208149     0.94300
O462        O  0.79914750  0.96320256  0.62347042    -0.81800
O463        O  0.80323385  0.95144695  0.37631726    -0.81300
C464        C  0.80806740  0.86166561  0.32115579     0.98100
O465        O  0.82312615  0.88061710  0.31997763    -0.70400
O466        O  0.79970766  0.92386970  0.31395999    -0.74000
Al467      Al  0.82419375  0.91284750  0.33569100     1.49000
C468        C  0.78290130  0.94089311  0.31688771     0.93300
O469        O  0.74974829  0.90581677  0.35710956    -0.80200
O470        O  0.80662541  0.88506003  0.39893368    -0.73800
Al471      Al  0.77787017  0.92743692  0.36628379     1.90100
O472        O  0.76468372  0.87096048  0.37370558    -0.72800
O473        O  0.83692823  0.86618442  0.36605535    -0.72700
O474        O  0.79474163  0.85745933  0.33900432    -0.78400
O475        O  0.85223168  0.90300040  0.35453622    -0.76600
O476        O  0.80100291  0.90444608  0.35677116    -1.12700
O477        O  0.82956747  0.94672106  0.34700371    -0.71900
C478        C  0.82218678  0.95913802  0.36459397     0.98800
C479        C  0.74631911  0.88333795  0.36490920     0.95200
Al480      Al  0.80077564  0.87265634  0.36849379     1.55600
O481        O  0.77424295  0.94528762  0.33698482    -0.76500
C482        C  0.85579893  0.88075884  0.36247762     0.99400
C483        C  0.79195632  0.90062831  0.40932335     0.94300
O484        O  0.77703300  0.91515467  0.39789069    -0.81800
O485        O  0.22525655  0.05796753  0.59348867    -0.81300
C486        C  0.19596239  0.10738522  0.67646937     0.98100
O487        O  0.19717498  0.11816144  0.65681093    -0.70400
O488        O  0.24142644  0.11258367  0.63699155    -0.74000
Al489      Al  0.20794365  0.10556736  0.62688114     1.49000
C490        C  0.26177500  0.10117491  0.63154663     0.93300
O491        O  0.24628406  0.04387590  0.65542327    -0.80200
O492        O  0.17509893  0.03514606  0.63255263    -0.73800
Al493      Al  0.23447899  0.05214696  0.62482943     1.90100
O494        O  0.20810591  0.03579247  0.66948477    -0.72800
O495        O  0.15828352  0.08107930  0.64448438    -0.72700
O496        O  0.19508120  0.08320577  0.67804893    -0.78400
O497        O  0.17380557  0.10326832  0.61569976    -0.76600
O498        O  0.20954380  0.07261503  0.63530935    -1.12700
O499        O  0.21845400  0.09960946  0.59534891    -0.71900
C500        C  0.22151185  0.07927806  0.58353460     0.98800
C501        C  0.23211222  0.03391086  0.67071692     0.95200
Al502      Al  0.18611551  0.05992799  0.65445801     1.55600
O503        O  0.26099421  0.07840073  0.62374368    -0.76500
C504        C  0.15488351  0.09570161  0.62732961     0.99400
C505        C  0.18954675  0.01764527  0.62482784     0.94300
O506        O  0.21353031  0.02124226  0.62350440    -0.81800
O507        O  0.20086539  0.03488755  0.37405424    -0.81300
C508        C  0.19889187  0.12531820  0.31921739     0.98100
O509        O  0.18625065  0.10501450  0.31588050    -0.70400
O510        O  0.21095864  0.06261661  0.31192186    -0.74000
Al511      Al  0.18377776  0.07301767  0.33132727     1.49000
C512        C  0.22671735  0.04502870  0.31620874     0.93300
O513        O  0.25510553  0.08094350  0.35759300    -0.80200
O514        O  0.19613279  0.09988441  0.39762604    -0.73800
Al515      Al  0.22696999  0.05886892  0.36547643     1.90100
O516        O  0.23848459  0.11592715  0.37304588    -0.72800
O517        O  0.16622971  0.11733798  0.36433481    -0.72700
O518        O  0.20869229  0.13024525  0.33868954    -0.78400
O519        O  0.15317662  0.08251472  0.34672913    -0.76600
O520        O  0.20418786  0.08166736  0.35470459    -1.12700
O521        O  0.17766704  0.03891198  0.34244779    -0.71900
C522        C  0.18331244  0.02675890  0.36077193     0.98800
C523        C  0.25751242  0.10379500  0.36496512     0.95200
Al524      Al  0.20246483  0.11308903  0.36735992     1.55600
O525        O  0.23283169  0.04036196  0.33691435    -0.76500
C526        C  0.14829941  0.10315698  0.35725389     0.99400
C527        C  0.21130582  0.08513041  0.40825469     0.94300
O528        O  0.22660766  0.07101609  0.39695705    -0.81800
O529        O  0.80486165  0.03949713  0.11903518    -0.81300
C530        C  0.81354642  0.13035223  0.17208036     0.98100
O531        O  0.83017078  0.11258452  0.17142175    -0.70400
O532        O  0.80764013  0.06879725  0.17959984    -0.74000
Al533      Al  0.82994602  0.07977047  0.15586387     1.49000
C534        C  0.78847335  0.05420957  0.17833951     0.93300
O535        O  0.75276222  0.08717126  0.13718593    -0.80200
O536        O  0.80766350  0.10842792  0.09467591    -0.73800
Al537      Al  0.78090977  0.06512241  0.12861705     1.90100
O538        O  0.76742615  0.12197964  0.12096679    -0.72800
O539        O  0.83941552  0.12710776  0.12621248    -0.72700
O540        O  0.79828075  0.13400009  0.15544535    -0.78400
O541        O  0.85570207  0.08956240  0.13436189    -0.76600
O542        O  0.80468134  0.08801516  0.13659083    -1.12700
O543        O  0.83477101  0.04534183  0.14490644    -0.71900
C544        C  0.82480300  0.03178716  0.12917361     0.98800
C545        C  0.74902550  0.10938923  0.12909776     0.95200
Al546      Al  0.80331717  0.12006833  0.12532956     1.55600
O547        O  0.77777787  0.04996660  0.15900490    -0.76500
C548        C  0.85841366  0.11214972  0.12687970     0.99400
C549        C  0.79408677  0.09147492  0.08490159     0.94300
O550        O  0.78041803  0.07589741  0.09653313    -0.81800
O551        O  0.78807265  0.05939475  0.90208835    -0.81300
C552        C  0.82112445  0.10159726  0.81738212     0.98100
O553        O  0.81872765  0.11425406  0.83608721    -0.70400
O554        O  0.77380709  0.11056760  0.85472919    -0.74000
Al555      Al  0.80687852  0.10460681  0.86651967     1.49000
C556        C  0.75345587  0.09979715  0.86090634     0.93300
O557        O  0.77068733  0.04192302  0.84020734    -0.80200
O558        O  0.84044040  0.03479986  0.86800672    -0.73800
Al559      Al  0.78063562  0.05148078  0.87095687     1.90100
O560        O  0.80945715  0.03076206  0.82955439    -0.72800
O561        O  0.85767007  0.07926440  0.85277619    -0.72700
O562        O  0.82274400  0.07739573  0.81771082    -0.78400
O563        O  0.84034960  0.10382807  0.87907686    -0.76600
O564        O  0.80603694  0.07111644  0.86047082    -1.12700
O565        O  0.79518210  0.10096284  0.89803390    -0.71900
C566        C  0.79117417  0.08148428  0.91076662     0.98800
C567        C  0.78554731  0.03041008  0.82635913     0.95200
Al568      Al  0.83057787  0.05677554  0.84350404     1.55600
O569        O  0.75411265  0.07767050  0.86999719    -0.76500
C570        C  0.85992799  0.09561739  0.86878754     0.99400
C571        C  0.82578953  0.01760073  0.87580489     0.94300
O572        O  0.80163721  0.02057243  0.87490922    -0.81800
O573        O  0.96017447  0.79073588  0.11589351    -0.81300
C574        C  0.87343423  0.80717645  0.17263341     0.98100
O575        O  0.89232020  0.82210716  0.17039616    -0.70400
O576        O  0.93446449  0.79656732  0.17776705    -0.74000
Al577      Al  0.92354344  0.81923183  0.15389381     1.49000
C578        C  0.94816398  0.77665466  0.17601515     0.93300
O579        O  0.91094957  0.74158073  0.13775472    -0.80200
O580        O  0.89153397  0.79672349  0.09425207    -0.73800
Al581      Al  0.93391879  0.76828511  0.12739987     1.90100
O582        O  0.87629933  0.75784140  0.12258457    -0.72800
O583        O  0.87585665  0.83110944  0.12547168    -0.72700
O584        O  0.86725017  0.79182759  0.15648050    -0.78400
O585        O  0.91416887  0.84564020  0.13239454    -0.76600
O586        O  0.91287149  0.79386039  0.13564925    -1.12700
O587        O  0.95686717  0.82149151  0.14154128    -0.71900
C588        C  0.96902172  0.81072433  0.12539527     0.98800
C589        C  0.88835308  0.73876771  0.13047771     0.95200
Al590      Al  0.88051738  0.79428168  0.12551517     1.55600
O591        O  0.95065706  0.76535289  0.15675465    -0.76500
C592        C  0.89145998  0.84961786  0.12597185     0.99400
C593        C  0.90741217  0.78178662  0.08446600     0.94300
O594        O  0.92152839  0.76688911  0.09625978    -0.81800
O595        O  0.94112100  0.77099551  0.90095476    -0.81300
C596        C  0.89601682  0.80923775  0.81953715     0.98100
O597        O  0.88453025  0.80613671  0.83866074    -0.70400
O598        O  0.88749904  0.75954733  0.85494085    -0.74000
Al599      Al  0.89527944  0.79204746  0.86782264     1.49000
C600        C  0.89756313  0.73842789  0.86042444     0.93300
O601        O  0.95498613  0.75353477  0.83821363    -0.80200
O602        O  0.96665836  0.82219769  0.86740256    -0.73800
Al603      Al  0.94706523  0.76328913  0.86945909     1.90100
O604        O  0.96625184  0.79254287  0.82765294    -0.72800
O605        O  0.92254232  0.84287250  0.85561217    -0.72700
O606        O  0.92012690  0.80967170  0.81865906    -0.78400
O607        O  0.89825270  0.82500001  0.88174912    -0.76600
O608        O  0.92820310  0.79004108  0.86031524    -1.12700
O609        O  0.89975376  0.77844363  0.89847390    -0.71900
C610        C  0.91970067  0.77477742  0.91048499     0.98800
C611        C  0.96652387  0.76844122  0.82438591     0.95200
Al612      Al  0.94269366  0.81478864  0.84373664     1.55600
O613        O  0.91981831  0.73798500  0.86900991    -0.76500
C614        C  0.90713429  0.84492746  0.87238053     0.99400
C615        C  0.98304327  0.80614043  0.87437364     0.94300
O616        O  0.97882424  0.78221301  0.87260650    -0.81800
O617        O  0.20300205  0.94990724  0.11799742    -0.81300
C618        C  0.18814456  0.85808525  0.16889498     0.98100
O619        O  0.17277650  0.87690491  0.16808203    -0.70400
O620        O  0.19714188  0.91942991  0.17856424    -0.74000
Al621      Al  0.17533192  0.91001080  0.15363741     1.49000
C622        C  0.21656440  0.93381360  0.17805782     0.93300
O623        O  0.25276078  0.90146792  0.13857931    -0.80200
O624        O  0.20039078  0.88253821  0.09274561    -0.73800
Al625      Al  0.22595768  0.92399353  0.12860115     1.90100
O626        O  0.23880153  0.86705131  0.12102114    -0.72800
O627        O  0.16624409  0.86409522  0.12215608    -0.72700
O628        O  0.20483655  0.85469125  0.15330778    -0.78400
O629        O  0.15008007  0.90164773  0.13086107    -0.76600
O630        O  0.20127915  0.90150182  0.13518305    -1.12700
O631        O  0.17249727  0.94467586  0.14348297    -0.71900
C632        C  0.18310421  0.95800474  0.12797879     0.98800
C633        C  0.25667776  0.87928923  0.13054495     0.95200
Al634      Al  0.20249040  0.86982582  0.12329373     1.55600
O635        O  0.22751433  0.93876179  0.15902046    -0.76500
C636        C  0.14733066  0.87918501  0.12295350     0.99400
C637        C  0.21524494  0.89901204  0.08389360     0.94300
O638        O  0.22878133  0.91357744  0.09661084    -0.81800
O639        O  0.22605301  0.92745265  0.89876756    -0.81300
C640        C  0.18645000  0.87281958  0.82260138     0.98100
O641        O  0.19083635  0.86297312  0.84228381    -0.70400
O642        O  0.23774300  0.87066359  0.85575544    -0.74000
Al643      Al  0.20602026  0.87737470  0.86991497     1.49000
C644        C  0.25830879  0.88261484  0.85895567     0.93300
O645        O  0.23836205  0.93720407  0.83459547    -0.80200
O646        O  0.17110056  0.94660498  0.86571115    -0.73800
Al647      Al  0.23106609  0.93129043  0.86663455     1.90100
O648        O  0.19849633  0.94447069  0.82479180    -0.72800
O649        O  0.15369822  0.90027468  0.85794344    -0.72700
O650        O  0.18497974  0.89684364  0.82011326    -0.78400
O651        O  0.17392888  0.87950676  0.88527862    -0.76600
O652        O  0.20541848  0.90984012  0.86012369    -1.12700
O653        O  0.22125329  0.88539995  0.89944924    -0.71900
C654        C  0.22452791  0.90662933  0.90986930     0.98800
C655        C  0.22208200  0.94491948  0.81996798     0.95200
Al656      Al  0.17920284  0.92115498  0.84358239     1.55600
O657        O  0.25794688  0.90559356  0.86620790    -0.76500
C658        C  0.15331336  0.88629217  0.87579489     0.99400
C659        C  0.18599147  0.96442234  0.87179506     0.94300
O660        O  0.20995303  0.96191996  0.86909002    -0.81800
O661        O  0.04696802  0.19443724  0.11740080    -0.81300
C662        C  0.13432491  0.18355991  0.17432136     0.98100
O663        O  0.11592692  0.16778877  0.17300705    -0.70400
O664        O  0.07304657  0.19180675  0.17926388    -0.74000
Al665      Al  0.08440205  0.16873113  0.15627003     1.49000
C666        C  0.05856356  0.21104641  0.17725170     0.93300
O667        O  0.09426793  0.24558267  0.13752998    -0.80200
O668        O  0.11562481  0.18940709  0.09570706    -0.73800
Al669      Al  0.07229381  0.21800983  0.12806234     1.90100
O670        O  0.12924606  0.22980000  0.12249418    -0.72800
O671        O  0.13234357  0.15742977  0.12824610    -0.72700
O672        O  0.13962605  0.19827484  0.15750011    -0.78400
O673        O  0.09440528  0.14199719  0.13548025    -0.76600
O674        O  0.09413820  0.19355727  0.13710271    -1.12700
O675        O  0.05094140  0.16502542  0.14418047    -0.71900
C676        C  0.03844418  0.17492173  0.12779972     0.98800
C677        C  0.11663109  0.24870757  0.12989786     0.95200
Al678      Al  0.12642433  0.19374518  0.12685076     1.55600
O679        O  0.05542073  0.22162871  0.15768474    -0.76500
C680        C  0.11714414  0.13867090  0.12891082     0.99400
C681        C  0.09989499  0.20384857  0.08521388     0.94300
O682        O  0.08481238  0.21846043  0.09650407    -0.81800
O683        O  0.07285477  0.21188462  0.89919256    -0.81300
C684        C  0.12359038  0.17405972  0.82004420     0.98100
O685        O  0.13380672  0.17665406  0.83979808    -0.70400
O686        O  0.12896481  0.22296011  0.85602763    -0.74000
Al687      Al  0.12078228  0.19040683  0.86841775     1.49000
C688        C  0.11776982  0.24399068  0.85971707     0.93300
O689        O  0.06180369  0.22774225  0.83507302    -0.80200
O690        O  0.04991701  0.15920174  0.86373291    -0.73800
Al691      Al  0.06835789  0.21858784  0.86699416     1.90100
O692        O  0.05296831  0.18837126  0.82415898    -0.72800
O693        O  0.09503812  0.13969845  0.85439592    -0.72700
O694        O  0.09961873  0.17286140  0.81798407    -0.78400
O695        O  0.11735384  0.15722203  0.88209445    -0.76600
O696        O  0.08830332  0.19205174  0.85908518    -1.12700
O697        O  0.11416888  0.20390513  0.89876804    -0.71900
C698        C  0.09367382  0.20813260  0.90984491     0.98800
C699        C  0.05307389  0.21222548  0.82009740     0.95200
Al700      Al  0.07547783  0.16710377  0.84162015     1.55600
O701        O  0.09496540  0.24426074  0.86698451    -0.76500
C702        C  0.10905468  0.13743479  0.87201130     0.99400
C703        C  0.03299053  0.17496495  0.87026905     0.94300
O704        O  0.03705079  0.19895421  0.86909471    -0.81800
C705        C  0.07316371  0.20447838  0.97306793    -0.27700
C706        C  0.09672089  0.20665322  0.98462151     0.05900
C707        C  0.11917338  0.20952306  0.97144110     0.25500
C708        C  0.11795762  0.21030010  0.94721366    -0.12200
C709        C  0.09436858  0.20827583  0.93559051    -0.26100
C710        C  0.07191488  0.20523726  0.94883257     0.36300
C711        C  0.09767211  0.20593693  0.01035973     0.05900
F712        F  0.14224123  0.21212009  0.98199364    -0.19900
H713        H  0.13556811  0.21259229  0.93752748     0.15800
F714        F  0.04881910  0.20223057  0.93843097    -0.23600
H715        H  0.05568123  0.20180910  0.98286709     0.17500
C716        C  0.08193963  0.22221707  0.02365055     0.25500
C717        C  0.08275730  0.22132586  0.04786694    -0.12100
C718        C  0.09926756  0.20420431  0.05943469    -0.26200
C719        C  0.11505148  0.18786860  0.04606165     0.36500
C720        C  0.11420723  0.18881298  0.02180230    -0.27800
F721        F  0.06617388  0.23945089  0.01320683    -0.19900
H722        H  0.07048148  0.23424745  0.05756654     0.15800
F723        F  0.13124019  0.17087404  0.05629771    -0.23600
H724        H  0.12631089  0.17590962  0.01189995     0.17600
C725        C  0.17742141  0.03514069  0.88634022    -0.27700
C726        C  0.15077394  0.03656437  0.88954025     0.05900
C727        C  0.13664481  0.01354917  0.89030527     0.25500
C728        C  0.14857033  0.99000492  0.88578446    -0.12200
C729        C  0.17486737  0.98879607  0.88068115    -0.26100
C730        C  0.18945541  0.01149494  0.88217098     0.36300
C731        C  0.13758003  0.06193527  0.88854577     0.05900
F732        F  0.11107456  0.01390187  0.89447961    -0.19900
H733        H  0.13692805  0.97278020  0.88539641     0.15800
F734        F  0.21503681  0.01120737  0.87811426    -0.23600
H735        H  0.18878773  0.05251951  0.88554855     0.17500
C736        C  0.14708641  0.08368578  0.90028551     0.25500
C737        C  0.13682730  0.10814577  0.89585530    -0.12100
C738        C  0.11689718  0.11133485  0.87971424    -0.26200
C739        C  0.10624278  0.08927334  0.86929440     0.36500
C740        C  0.11665730  0.06501736  0.87352838    -0.27800
F741        F  0.16667582  0.08139702  0.91559045    -0.19900
H742        H  0.14520993  0.12469961  0.90435558     0.15800
F743        F  0.08640492  0.09109029  0.85418644    -0.23600
H744        H  0.10909228  0.04874876  0.86401306     0.17600
C745        C  0.17705193  0.02748777  0.10786298    -0.27700
C746        C  0.15353939  0.03456286  0.11787788     0.05900
C747        C  0.13902967  0.01575970  0.12938641     0.25500
C748        C  0.14834479  0.99070175  0.13161043    -0.12200
C749        C  0.17235379  0.98375293  0.12249276    -0.26100
C750        C  0.18642476  0.00231758  0.11006491     0.36300
C751        C  0.14502853  0.06182061  0.11801084     0.05900
F752        F  0.11651668  0.02197176  0.13974609    -0.19900
H753        H  0.13701738  0.97689943  0.14121486     0.15800
F754        F  0.20970552  0.99659124  0.10095845    -0.23600
H755        H  0.18845091  0.04166574  0.09878646     0.17500
C756        C  0.16123443  0.08118430  0.12659745     0.25500
C757        C  0.15221248  0.10634310  0.12914135    -0.12100
C758        C  0.12679106  0.11261225  0.12357418    -0.26200
C759        C  0.11078820  0.09349601  0.11430392     0.36500
C760        C  0.11993326  0.06834769  0.11143347    -0.27800
F761        F  0.18528063  0.07548351  0.13389089    -0.19900
H762        H  0.16481458  0.12071784  0.13651946     0.15800
F763        F  0.08636051  0.09909644  0.10809241    -0.23600
H764        H  0.10723380  0.05378059  0.10453368     0.17600
C765        C  0.21719716  0.92807389  0.97223217    -0.27700
C766        C  0.22508014  0.90595634  0.98424068     0.05900
C767        C  0.23424737  0.88466663  0.97160753     0.25500
C768        C  0.23448685  0.88518335  0.94740877    -0.12200
C769        C  0.22605025  0.90706202  0.93538988    -0.26100
C770        C  0.21780323  0.92875369  0.94802334     0.36300
C771        C  0.22244478  0.90461295  0.00977701     0.05900
F772        F  0.24297827  0.86334691  0.98267905    -0.19900
H773        H  0.24118445  0.86839554  0.93803572     0.15800
F774        F  0.20908109  0.95012960  0.93701630    -0.23600
H775        H  0.20975334  0.94455250  0.98158171     0.17500
C776        C  0.23157473  0.92443299  0.02416738     0.25500
C777        C  0.22906148  0.92255253  0.04824297    -0.12100
C778        C  0.21726278  0.90101030  0.05837950    -0.26200
C779        C  0.20780892  0.88138490  0.04388532     0.36500
C780        C  0.21035941  0.88328649  0.01987869    -0.27800
F781        F  0.24345951  0.94530236  0.01501994    -0.19900
H782        H  0.23640703  0.93798556  0.05896581     0.15800
F783        F  0.19651478  0.86007076  0.05281490    -0.23600
H784        H  0.20275100  0.86802974  0.00910059     0.17600
C785        C  0.08205470  0.87711917  0.88244681    -0.27700
C786        C  0.08078758  0.85232038  0.89208815     0.05900
C787        C  0.10365085  0.84028357  0.89917278     0.25500
C788        C  0.12727743  0.85228583  0.89536379    -0.12200
C789        C  0.12850869  0.87633490  0.88427022    -0.26100
C790        C  0.10557778  0.88906526  0.87863531     0.36300
C791        C  0.05593201  0.83839939  0.89205535     0.05900
F792        F  0.10322005  0.81659677  0.90907369    -0.19900
H793        H  0.14466662  0.84209877  0.89989727     0.15800
F794        F  0.10588440  0.91267566  0.86856924    -0.23600
H795        H  0.06484994  0.88676743  0.87660070     0.17500
C796        C  0.03314360  0.85092568  0.89864048     0.25500
C797        C  0.00941114  0.83972448  0.89387426    -0.12100
C798        C  0.00793301  0.81560855  0.88296759    -0.26200
C799        C  0.03067237  0.80215375  0.87805172     0.36500
C800        C  0.05441537  0.81358316  0.88239542    -0.27800
F801        F  0.03380294  0.87440515  0.90895992    -0.19900
H802        H  0.99211697  0.85026529  0.89808767     0.15800
F803        F  0.03002215  0.77893409  0.86725561    -0.23600
H804        H  0.07158124  0.80364913  0.87681903     0.17600
C805        C  0.03671340  0.81817313  0.10143974    -0.27700
C806        C  0.04419977  0.84154806  0.11178572     0.05900
C807        C  0.02607370  0.85541752  0.12478411     0.25500
C808        C  0.00147180  0.84570285  0.12802733    -0.12200
C809        C  0.99420311  0.82178121  0.11865205    -0.26100
C810        C  0.01196466  0.80831180  0.10481107     0.36300
C811        C  0.07126899  0.85047506  0.11090922     0.05900
F812        F  0.03257314  0.87763646  0.13567934    -0.19900
H813        H  0.98832651  0.85666076  0.13870967     0.15800
F814        F  0.00589365  0.78517921  0.09537793    -0.23600
H815        H  0.05026707  0.80722414  0.09118517     0.17500
C816        C  0.09132547  0.83377456  0.11714743     0.25500
C817        C  0.11621688  0.84315329  0.11973504    -0.12100
C818        C  0.12165192  0.86940995  0.11657520    -0.26200
C819        C  0.10191515  0.88592349  0.10925192     0.36500
C820        C  0.07702311  0.87644268  0.10627648    -0.27800
F821        F  0.08660935  0.80877221  0.12242275    -0.19900
H822        H  0.13102396  0.83004235  0.12553960     0.15800
F823        F  0.10657094  0.91123510  0.10530114    -0.23600
H824        H  0.06200810  0.88960298  0.10105049     0.17600
C825        C  0.93136950  0.76754920  0.02374903    -0.27700
C826        C  0.91347637  0.78082585  0.01015757     0.05900
C827        C  0.89375502  0.79470249  0.02110775     0.25500
C828        C  0.89189012  0.79498223  0.04526237    -0.12200
C829        C  0.90962924  0.78145167  0.05891473    -0.26100
C830        C  0.92961927  0.76787446  0.04786474     0.36300
C831        C  0.91514078  0.77947740  0.98460665     0.05900
F832        F  0.87651377  0.80830234  0.00846380    -0.19900
H833        H  0.87647817  0.80575964  0.05326425     0.15800
F834        F  0.94763055  0.75496800  0.06023233    -0.23600
H835        H  0.94657042  0.75655587  0.01564442     0.17500
C836        C  0.93839690  0.78415118  0.97309414     0.25500
C837        C  0.93981365  0.78203825  0.94900581    -0.12100
C838        C  0.91805043  0.77555047  0.93597834    -0.26200
C839        C  0.89476494  0.77102074  0.94749751     0.36500
C840        C  0.89344547  0.77280158  0.97160910    -0.27800
F841        F  0.95956882  0.79138935  0.98506139    -0.19900
H842        H  0.95784731  0.78606228  0.94048195     0.15800
F843        F  0.87337348  0.76446038  0.93555107    -0.23600
H844        H  0.87547329  0.76867853  0.98018857     0.17600
C845        C  0.86601271  0.89806397  0.89839918    -0.27700
C846        C  0.87647098  0.92006022  0.88794965     0.05900
C847        C  0.89909796  0.91749622  0.87488632     0.25500
C848        C  0.90975181  0.89312822  0.87089726    -0.12200
C849        C  0.89826582  0.87084405  0.88001430    -0.26100
C850        C  0.87677780  0.87372264  0.89462264     0.36300
C851        C  0.86231028  0.94493868  0.88856633     0.05900
F852        F  0.90992685  0.93829980  0.86460614    -0.19900
H853        H  0.92644799  0.89163202  0.85983999     0.15800
F854        F  0.86519986  0.85295527  0.90425664    -0.23600
H855        H  0.84885328  0.89963770  0.90885310     0.17500
C856        C  0.83658612  0.94607395  0.88134322     0.25500
C857        C  0.82413991  0.96979932  0.87899776    -0.12100
C858        C  0.83715032  0.99287893  0.88346494    -0.26200
C859        C  0.86243244  0.99171566  0.89190356     0.36500
C860        C  0.87482555  0.96794072  0.89445501    -0.27800
F861        F  0.82406350  0.92437869  0.87482225    -0.19900
H862        H  0.80484535  0.97017084  0.87214626     0.15800
F863        F  0.87542374  0.01360366  0.89701536    -0.23600
H864        H  0.89449086  0.96752890  0.90036402     0.17600
C865        C  0.93154134  0.10714215  0.86845310    -0.27700
C866        C  0.93367660  0.12970087  0.88174666     0.05900
C867        C  0.91147677  0.14021451  0.89183937     0.25500
C868        C  0.88766862  0.12847484  0.88832713    -0.12200
C869        C  0.88550248  0.10620620  0.87453714    -0.26100
C870        C  0.90785856  0.09543901  0.86491918     0.36300
C871        C  0.95893123  0.14267235  0.88346281     0.05900
F872        F  0.91274905  0.16186719  0.90497078    -0.19900
H873        H  0.87081203  0.13725934  0.89590032     0.15800
F874        F  0.90691304  0.07387152  0.85165008    -0.23600
H875        H  0.94822751  0.09892373  0.86009494     0.17500
C876        C  0.98124943  0.12827727  0.88778724     0.25500
C877        C  0.00534054  0.13934877  0.88470164    -0.12100
C878        C  0.00771154  0.16510086  0.87766179    -0.26200
C879        C  0.98542284  0.18017460  0.87536171     0.36500
C880        C  0.96127134  0.16893608  0.87805483    -0.27800
F881        F  0.97975533  0.10319370  0.89420424    -0.19900
H882        H  0.02219344  0.12746825  0.88705277     0.15800
F883        F  0.98681719  0.20521777  0.86879482    -0.23600
H884        H  0.94441682  0.18042675  0.87451640     0.17600
C885        C  0.89056235  0.92167199  0.11317294    -0.27700
C886        C  0.86465719  0.92788981  0.11708090     0.05900
C887        C  0.84749596  0.90764490  0.12183218     0.25500
C888        C  0.85624991  0.88220596  0.12345333    -0.12200
C889        C  0.88234757  0.87621159  0.12083201    -0.26100
C890        C  0.89939735  0.89622283  0.11522864     0.36300
C891        C  0.85588224  0.95539192  0.11772475     0.05900
F892        F  0.82246021  0.91251578  0.12635894    -0.19900
H893        H  0.84266331  0.86729609  0.12794637     0.15800
F894        F  0.92465356  0.89128485  0.11196585    -0.23600
H895        H  0.90414915  0.93664368  0.10889788     0.17500
C896        C  0.86983920  0.97419037  0.12999262     0.25500
C897        C  0.86008697  0.99915431  0.13276149    -0.12100
C898        C  0.83618786  0.00616404  0.12345340    -0.26200
C899        C  0.82274772  0.98773766  0.11027185     0.36500
C900        C  0.83257926  0.96276995  0.10740938    -0.27800
F901        F  0.89228022  0.96814195  0.14050615    -0.19900
H902        H  0.87099982  0.01283389  0.14289680     0.15800
F903        F  0.79956980  0.99338092  0.10094387    -0.23600
H904        H  0.82162573  0.94898244  0.09744275     0.17600
C905        C  0.97910142  0.13317529  0.12950595    -0.27700
C906        C  0.96229389  0.14653307  0.11483874     0.05900
C907        C  0.97131317  0.16847674  0.10308033     0.25500
C908        C  0.99645941  0.17710020  0.10654355    -0.12200
C909        C  0.01300980  0.16406530  0.12180854    -0.26100
C910        C  0.00411547  0.14160265  0.13287290     0.36300
C911        C  0.93510061  0.13822203  0.11360074     0.05900
F912        F  0.95580851  0.18168999  0.08842318    -0.19900
H913        H  0.00272284  0.19440401  0.09777394     0.15800
F914        F  0.01924694  0.12803150  0.14759389    -0.23600
H915        H  0.97257905  0.11655619  0.13915317     0.17500
C916        C  0.92883483  0.11194399  0.11181992     0.25500
C917        C  0.90368600  0.10371199  0.11528431    -0.12100
C918        C  0.88414532  0.12148235  0.12015042    -0.26200
C919        C  0.89003103  0.14795706  0.12018283     0.36500
C920        C  0.91531470  0.15615232  0.11711631    -0.27800
F921        F  0.94719838  0.09409904  0.10738173    -0.19900
H922        H  0.89960823  0.08328790  0.11470596     0.15800
F923        F  0.87174451  0.16587347  0.12467134    -0.23600
H924        H  0.91959757  0.17645049  0.11880452     0.17600
C925        C  0.79541515  0.06648653  0.02342468    -0.27700
C926        C  0.79220260  0.08932335  0.01066033     0.05900
C927        C  0.78943184  0.11278007  0.02262189     0.25500
C928        C  0.79047984  0.11332648  0.04682215    -0.12200
C929        C  0.79354760  0.09048775  0.05946825    -0.26100
C930        C  0.79591034  0.06700078  0.04765131     0.36300
C931        C  0.79129956  0.08829461  0.98498020     0.05900
F932        F  0.78484037  0.13501527  0.01099464    -0.19900
H933        H  0.78825491  0.13154426  0.05576269     0.15800
F934        F  0.79942471  0.04471335  0.05951065    -0.23600
H935        H  0.79772189  0.04822870  0.01458229     0.17500
C936        C  0.80633546  0.10485837  0.97129813     0.25500
C937        C  0.80560591  0.10309280  0.94710331    -0.12100
C938        C  0.79034241  0.08447199  0.93618992    -0.26200
C939        C  0.77522500  0.06802872  0.94985551     0.36500
C940        C  0.77567194  0.07003798  0.97398931    -0.27800
F941        F  0.82255072  0.12196861  0.98128862    -0.19900
H942        H  0.81766708  0.11569730  0.93690277     0.15800
F943        F  0.75977766  0.05019016  0.93989392    -0.23600
H944        H  0.76376440  0.05726131  0.98415867     0.17600
C945        C  0.24536624  0.98578810  0.28161194    -0.27700
C946        C  0.24073133  0.99431921  0.25886991     0.05900
C947        C  0.23511884  0.02048113  0.25517877     0.25500
C948        C  0.23275470  0.03733469  0.27392795    -0.12200
C949        C  0.23578167  0.02856670  0.29680832    -0.26100
C950        C  0.24314326  0.00276181  0.30045851     0.36300
C951        C  0.23850216  0.97570650  0.23938486     0.05900
F952        F  0.22968013  0.02934618  0.23359798    -0.19900
H953        H  0.22702689  0.05703258  0.27057201     0.15800
F954        F  0.24621394  0.99339231  0.32224691    -0.23600
H955        H  0.24968497  0.96571161  0.28483821     0.17500
C956        C  0.25100565  0.98006344  0.21816444     0.25500
C957        C  0.24471805  0.96546665  0.19858538    -0.12100
C958        C  0.22588707  0.94617057  0.19974518    -0.26200
C959        C  0.21493225  0.94043532  0.22149402     0.36500
C960        C  0.22121960  0.95511427  0.24105540    -0.27800
F961        F  0.26867840  0.99905121  0.21618324    -0.19900
H962        H  0.25388336  0.97005921  0.18226241     0.15800
F963        F  0.19739031  0.92136205  0.22377459    -0.23600
H964        H  0.21146866  0.95129314  0.25726842     0.17600
C965        C  0.18921049  0.18626923  0.21752058    -0.27700
C966        C  0.17652023  0.17875650  0.23791624     0.05900
C967        C  0.14992982  0.17511508  0.23747408     0.25500
C968        C  0.13647482  0.17769381  0.21680423    -0.12200
C969        C  0.14910142  0.18422004  0.19613949    -0.26100
C970        C  0.17552080  0.18936881  0.19674073     0.36300
C971        C  0.19073797  0.17018965  0.25864530     0.05900
F972        F  0.13724017  0.16706080  0.25670074    -0.19900
H973        H  0.11613584  0.17373642  0.21682112     0.15800
F974        F  0.18831309  0.19566759  0.17707326    -0.23600
H975        H  0.20978241  0.18874863  0.21753745     0.17500
C976        C  0.20395138  0.14667019  0.25769338     0.25500
C977        C  0.20900570  0.13315217  0.27807652    -0.12100
C978        C  0.20144976  0.14314673  0.29962605    -0.26200
C979        C  0.19119483  0.16808352  0.30083780     0.36500
C980        C  0.18561483  0.18144046  0.28035129    -0.27800
F981        F  0.20893686  0.13524095  0.23699455    -0.19900
H982        H  0.21692295  0.11389700  0.27691845     0.15800
F983        F  0.18373136  0.17811117  0.32150722    -0.23600
H984        H  0.17523717  0.19947256  0.28134508     0.17600
C985        C  0.21935245  0.05956182  0.51997141    -0.27700
C986        C  0.21745302  0.08346724  0.50877353     0.05900
C987        C  0.21706890  0.10601146  0.52227392     0.25500
C988        C  0.21857951  0.10452623  0.54649658    -0.12200
C989        C  0.22050501  0.08056294  0.55777125    -0.26100
C990        C  0.22086440  0.05801988  0.54413737     0.36300
C991        C  0.21599707  0.08452276  0.48305318     0.05900
F992        F  0.21582295  0.12949251  0.51203128    -0.19900
H993        H  0.21830211  0.12222211  0.55642933     0.15800
F994        F  0.22231227  0.03437818  0.55404893    -0.23600
H995        H  0.21938229  0.04193237  0.50993116     0.17500
C996        C  0.23415386  0.07148672  0.46941382     0.25500
C997        C  0.23222492  0.07162112  0.44525673    -0.12100
C998        C  0.21224453  0.08484645  0.43403400    -0.26200
C999        C  0.19413836  0.09812105  0.44771036     0.36500
C1000       C  0.19606847  0.09790814  0.47197304    -0.27800
F1001       F  0.25412545  0.05901974  0.47945155    -0.19900
H1002       H  0.24667483  0.06151406  0.43530831     0.15800
F1003       F  0.17443878  0.11108841  0.43775712    -0.23600
H1004       H  0.18173213  0.10788769  0.48216066     0.17600
C1005       C  0.24924530  0.01730183  0.73198047    -0.27700
C1006       C  0.24700683  0.99035688  0.73144683     0.05900
C1007       C  0.24444146  0.97791924  0.70987305     0.25500
C1008       C  0.24226880  0.99237464  0.68949312    -0.12200
C1009       C  0.24270078  0.01934221  0.69030564    -0.26100
C1010       C  0.24688010  0.03173286  0.71159235     0.36300
C1011       C  0.24283663  0.97610613  0.75342940     0.05900
F1012       F  0.24244783  0.95190017  0.70869691    -0.19900
H1013       H  0.23846011  0.98258268  0.67327518     0.15800
F1014       F  0.24630722  0.05780845  0.71293601    -0.23600
H1015       H  0.25074260  0.02730055  0.74841179     0.17500
C1016       C  0.25978317  0.97823488  0.77229968     0.25500
C1017       C  0.25352565  0.96727665  0.79382222    -0.12100
C1018       C  0.23004437  0.95458787  0.79692203    -0.26200
C1019       C  0.21357465  0.95175613  0.77776484     0.36500
C1020       C  0.22000875  0.96230846  0.75631085    -0.27800
F1021       F  0.28215577  0.99119560  0.76997537    -0.19900
H1022       H  0.26658068  0.96951218  0.80826040     0.15800
F1023       F  0.19105595  0.93894256  0.77977076    -0.23600
H1024       H  0.20655634  0.96060346  0.74210607     0.17600
C1025       C  0.18291087  0.16256038  0.71793797    -0.27700
C1026       C  0.18210369  0.14937138  0.73916632     0.05900
C1027       C  0.18922158  0.12332025  0.73989351     0.25500
C1028       C  0.19525359  0.11029047  0.71950137    -0.12200
C1029       C  0.19419420  0.12287768  0.69795528    -0.26100
C1030       C  0.18913014  0.14952291  0.69744431     0.36300
C1031       C  0.16937199  0.16099860  0.75949078     0.05900
F1032       F  0.18797382  0.10979515  0.75999673    -0.19900
H1033       H  0.19941957  0.08989323  0.72051745     0.15800
F1034       F  0.18856201  0.16265518  0.67711523    -0.23600
H1035       H  0.17743202  0.18265529  0.71710457     0.17500
C1036       C  0.18063776  0.16025726  0.78159987     0.25500
C1037       C  0.16593184  0.16562107  0.80128503    -0.12100
C1038       C  0.13980891  0.17168126  0.79916119    -0.26200
C1039       C  0.12918310  0.17438287  0.77685032     0.36500
C1040       C  0.14390491  0.16910947  0.75726030    -0.27800
F1041       F  0.20551525  0.15328200  0.78417690    -0.19900
H1042       H  0.17471593  0.16390070  0.81821958     0.15800
F1043       F  0.10434851  0.18129695  0.77388054    -0.23600
H1044       H  0.13489754  0.16981049  0.74035337     0.17600
C1045       C  0.85913353  0.82025512  0.23551116    -0.27700
C1046       C  0.83306889  0.81449989  0.23712727     0.05900
C1047       C  0.82004932  0.80532374  0.21744358     0.25500
C1048       C  0.83326060  0.80190139  0.19641666    -0.12200
C1049       C  0.85932045  0.80833747  0.19479935    -0.26100
C1050       C  0.87212552  0.81734765  0.21471850     0.36300
C1051       C  0.81999794  0.82053320  0.25916641     0.05900
F1052       F  0.79469206  0.79991128  0.21855514    -0.19900
H1053       H  0.82301291  0.79507902  0.18130321     0.15800
F1054       F  0.89729508  0.82375507  0.21417273    -0.23600
H1055       H  0.86937699  0.82785038  0.25034692     0.17500
C1056       C  0.83013123  0.81118924  0.28015309     0.25500
C1057       C  0.82369039  0.82297699  0.30110929    -0.12100
C1058       C  0.80724878  0.84422980  0.30132196    -0.26200
C1059       C  0.79542109  0.85223683  0.28069836     0.36500
C1060       C  0.80161147  0.84024043  0.25971174    -0.27800
F1061       F  0.84820351  0.79238884  0.28007952    -0.19900
H1062       H  0.83334827  0.81705318  0.31685621     0.15800
F1063       F  0.77982352  0.87316550  0.28060065    -0.23600
H1064       H  0.79399018  0.84799755  0.24370566     0.17600
C1065       C  0.78378687  0.03251139  0.24112131    -0.27700
C1066       C  0.77046023  0.00923170  0.23879279     0.05900
C1067       C  0.76023142  0.00266342  0.21703104     0.25500
C1068       C  0.76473893  0.01828246  0.19767793    -0.12200
C1069       C  0.77971729  0.04063679  0.19959769    -0.26100
C1070       C  0.78849682  0.04806642  0.22176485     0.36300
C1071       C  0.77007724  0.99061329  0.25832807     0.05900
F1072       F  0.74668114  0.98060255  0.21434020    -0.19900
H1073       H  0.75761449  0.01211560  0.18094438     0.15800
F1074       F  0.80250415  0.06982135  0.22466381    -0.23600
H1075       H  0.79179370  0.03795129  0.25773748     0.17500
C1076       C  0.78119183  0.96617881  0.25550517     0.25500
C1077       C  0.78361399  0.94954981  0.27437185    -0.12100
C1078       C  0.77528514  0.95688039  0.29662975    -0.26200
C1079       C  0.76318814  0.98099976  0.29930852     0.36500
C1080       C  0.76080906  0.99774149  0.28030484    -0.27800
F1081       F  0.79136584  0.95904160  0.23480422    -0.19900
H1082       H  0.79316681  0.93126809  0.27168850     0.15800
F1083       F  0.75495921  0.98904958  0.32043398    -0.23600
H1084       H  0.75231779  0.01656475  0.28284998     0.17600
C1085       C  0.78723937  0.92672943  0.52137409    -0.27700
C1086       C  0.78749855  0.90300716  0.50973827     0.05900
C1087       C  0.78699328  0.88016569  0.52279406     0.25500
C1088       C  0.78640649  0.88116011  0.54703402    -0.12200
C1089       C  0.78626518  0.90491437  0.55874912    -0.26100
C1090       C  0.78661092  0.92778260  0.54557635     0.36300
C1091       C  0.78862630  0.90232869  0.48404220     0.05900
F1092       F  0.78665153  0.85688243  0.51210851    -0.19900
H1093       H  0.78609244  0.86326034  0.55663786     0.15800
F1094       F  0.78695281  0.95123614  0.55596470    -0.23600
H1095       H  0.78797958  0.94455325  0.51166786     0.17500
C1096       C  0.77137477  0.91683261  0.47066376     0.25500
C1097       C  0.77280990  0.91636289  0.44647381    -0.12100
C1098       C  0.79141314  0.90140242  0.43505548    -0.26200
C1099       C  0.80878638  0.88696010  0.44851511     0.36500
C1100       C  0.80733365  0.88748760  0.47273925    -0.27800
F1101       F  0.75270151  0.93098888  0.48097032    -0.19900
H1102       H  0.75906755  0.92755052  0.43667129     0.15800
F1103       F  0.82728189  0.87241024  0.43839591    -0.23600
H1104       H  0.82105796  0.87647529  0.48272808     0.17600
C1105       C  0.84079273  0.82442347  0.71614914    -0.27700
C1106       C  0.84047364  0.83755418  0.73744630     0.05900
C1107       C  0.83066371  0.86271490  0.73839545     0.25500
C1108       C  0.82239528  0.87484959  0.71822885    -0.12200
C1109       C  0.82395859  0.86231261  0.69667310    -0.26100
C1110       C  0.83248012  0.83660739  0.69586992     0.36300
C1111       C  0.85325526  0.82645792  0.75798193     0.05900
F1112       F  0.83094413  0.87634886  0.75848900    -0.19900
H1113       H  0.81585276  0.89460950  0.71937553     0.15800
F1114       F  0.83438029  0.82381398  0.67540948    -0.23600
H1115       H  0.84839508  0.80504704  0.71511954     0.17500
C1116       C  0.84106605  0.82600401  0.77969570     0.25500
C1117       C  0.85486438  0.81945568  0.79957174    -0.12100
C1118       C  0.88102948  0.81331611  0.79812311    -0.26200
C1119       C  0.89277500  0.81227719  0.77614462     0.36500
C1120       C  0.87893355  0.81878637  0.75630767    -0.27800
F1121       F  0.81599862  0.83251931  0.78173538    -0.19900
H1122       H  0.84524290  0.82007161  0.81620311     0.15800
F1123       F  0.91776334  0.80556984  0.77378729    -0.23600
H1124       H  0.88864123  0.81899220  0.73970374     0.17600
C1125       C  0.78500667  0.99688220  0.72256153    -0.27700
C1126       C  0.76770851  0.98522814  0.73783287     0.05900
C1127       C  0.75376206  0.96361764  0.73041386     0.25500
C1128       C  0.75775303  0.95341662  0.70812873    -0.12200
C1129       C  0.77618126  0.96428803  0.69335359    -0.26100
C1130       C  0.78944117  0.98642067  0.70063503     0.36300
C1131       C  0.76692408  0.99429588  0.76212094     0.05900
F1132       F  0.73708304  0.95189350  0.74500902    -0.19900
H1133       H  0.74765805  0.93614408  0.70298180     0.15800
F1134       F  0.80742648  0.99739966  0.68682676    -0.23600
H1135       H  0.79606784  0.01339732  0.72811257     0.17500
C1136       C  0.78036030  0.98065558  0.77926069     0.25500
C1137       C  0.78493783  0.99194097  0.80087424    -0.12100
C1138       C  0.77571745  0.01671472  0.80587654    -0.26200
C1139       C  0.76080821  0.02968006  0.78931372     0.36500
C1140       C  0.75673123  0.01862148  0.76744597    -0.27800
F1141       F  0.79083693  0.95733345  0.77442230    -0.19900
H1142       H  0.79671721  0.98183265  0.81337343     0.15800
F1143       F  0.75226878  0.05393181  0.79349585    -0.23600
H1144       H  0.74673558  0.02954700  0.75426379     0.17600
C1145       C  0.97173095  0.76860443  0.23778622    -0.27700
C1146       C  0.99594247  0.75757897  0.23410163     0.05900
C1147       C  0.00286611  0.74998400  0.21155224     0.25500
C1148       C  0.98642552  0.75478830  0.19289381    -0.12200
C1149       C  0.96296653  0.76754566  0.19633795    -0.26100
C1150       C  0.95541487  0.77370132  0.21910998     0.36300
C1151       C  0.01472852  0.75706547  0.25337022     0.05900
F1152       F  0.02590839  0.73876132  0.20747674    -0.19900
H1153       H  0.99270401  0.74977259  0.17556315     0.15800
F1154       F  0.93259410  0.78527071  0.22329545    -0.23600
H1155       H  0.96601428  0.77455871  0.25503828     0.17500
C1156       C  0.03773684  0.77084627  0.25143332     0.25500
C1157       C  0.05342662  0.77428335  0.27078020    -0.12100
C1158       C  0.04650344  0.76423373  0.29255492    -0.26200
C1159       C  0.02433858  0.74886677  0.29408419     0.36500
C1160       C  0.00852387  0.74556379  0.27466910    -0.27800
F1161       F  0.04402423  0.78282486  0.23130931    -0.19900
H1162       H  0.07034972  0.78611764  0.26893241     0.15800
F1163       F  0.01704254  0.73833224  0.31456753    -0.23600
H1164       H  0.99088753  0.73482245  0.27646382     0.17600
C1165       C  0.20339433  0.82415424  0.22477112    -0.27700
C1166       C  0.17889075  0.81605075  0.23159942     0.05900
C1167       C  0.15826423  0.81890455  0.21617025     0.25500
C1168       C  0.16185182  0.83120141  0.19492590    -0.12200
C1169       C  0.18606778  0.84039113  0.18859024    -0.26100
C1170       C  0.20705949  0.83604359  0.20324500     0.36300
C1171       C  0.17375102  0.80930649  0.25602747     0.05900
F1172       F  0.13422371  0.81197632  0.22253529    -0.19900
H1173       H  0.14545061  0.83471547  0.18386902     0.15800
F1174       F  0.23050474  0.84543547  0.19772115    -0.23600
H1175       H  0.21936732  0.82248811  0.23663945     0.17500
C1176       C  0.16183337  0.78599323  0.26202753     0.25500
C1177       C  0.15181506  0.78262519  0.28435903    -0.12100
C1178       C  0.15326054  0.80262334  0.30066134    -0.26200
C1179       C  0.16648414  0.82524619  0.29507009     0.36500
C1180       C  0.17695631  0.82838752  0.27299846    -0.27800
F1181       F  0.15845420  0.76727953  0.24588436    -0.19900
H1182       H  0.14112379  0.76532240  0.28830287     0.15800
F1183       F  0.16750563  0.84506525  0.31039914    -0.23600
H1184       H  0.18575996  0.84660076  0.26856947     0.17600
C1185       C  0.92821483  0.87831552  0.36782168    -0.27700
C1186       C  0.93287919  0.85165505  0.36784158     0.05900
C1187       C  0.91184108  0.83476103  0.36785068     0.25500
C1188       C  0.88683401  0.84443734  0.36719471    -0.12200
C1189       C  0.88222522  0.87109073  0.36615750    -0.26100
C1190       C  0.90325189  0.88798938  0.36675246     0.36300
C1191       C  0.95962130  0.84174751  0.36669122     0.05900
F1192       F  0.91540074  0.80888640  0.36722071    -0.19900
H1193       H  0.87106738  0.83095460  0.36648240     0.15800
F1194       F  0.89979749  0.91387524  0.36599308    -0.23600
H1195       H  0.94401807  0.89176196  0.36828736     0.17500
C1196       C  0.97710482  0.85213717  0.35069175     0.25500
C1197       C  0.00199408  0.84251144  0.34924120    -0.12100
C1198       C  0.01013838  0.82205461  0.36343021    -0.26200
C1199       C  0.99270085  0.81165229  0.37951623     0.36500
C1200       C  0.96777170  0.82154620  0.38116774    -0.27800
F1201       F  0.96988649  0.87095310  0.33572509    -0.19900
H1202       H  0.01476500  0.85082749  0.33649749     0.15800
F1203       F  0.99944217  0.79159688  0.39329116    -0.23600
H1204       H  0.95477483  0.81333706  0.39377073     0.17600
C1205       C  0.15499062  0.90607287  0.37651176    -0.27700
C1206       C  0.13742642  0.92642298  0.37449484     0.05900
C1207       C  0.11139086  0.92057426  0.37106369     0.25500
C1208       C  0.10348134  0.89499309  0.36839715    -0.12200
C1209       C  0.12127941  0.87467586  0.36925018    -0.26100
C1210       C  0.14710603  0.88050523  0.37401164     0.36300
C1211       C  0.14691920  0.95339569  0.37314278     0.05900
F1212       F  0.09365220  0.93963755  0.36979924    -0.19900
H1213       H  0.08345474  0.89115403  0.36505853     0.15800
F1214       F  0.16511875  0.86169218  0.37502939    -0.23600
H1215       H  0.17517385  0.91000535  0.37882127     0.17500
C1216       C  0.16521161  0.96301643  0.38884323     0.25500
C1217       C  0.17643847  0.98720489  0.38522423    -0.12100
C1218       C  0.16964265  0.00228844  0.36592425    -0.26200
C1219       C  0.15043264  0.99303829  0.35086671     0.36500
C1220       C  0.13939605  0.96891899  0.35445401    -0.27800
F1221       F  0.17243360  0.94892076  0.40753825    -0.19900
H1222       H  0.19089655  0.99384585  0.39725961     0.15800
F1223       F  0.14274340  0.00681500  0.33212247    -0.23600
H1224       H  0.12564830  0.96189549  0.34191680     0.17600
C1225       C  0.92786218  0.87582568  0.62305392    -0.27700
C1226       C  0.92989353  0.85360093  0.60934281     0.05900
C1227       C  0.90773737  0.84361369  0.59884222     0.25500
C1228       C  0.88392560  0.85536143  0.60261976    -0.12200
C1229       C  0.88179107  0.87705026  0.61712883    -0.26100
C1230       C  0.90419620  0.88747743  0.62692854     0.36300
C1231       C  0.95488607  0.84010686  0.60796972     0.05900
F1232       F  0.90906847  0.82232699  0.58523570    -0.19900
H1233       H  0.86703658  0.84689863  0.59488131     0.15800
F1234       F  0.90328529  0.90853973  0.64085659    -0.23600
H1235       H  0.94458131  0.88365969  0.63160377     0.17500
C1236       C  0.97746191  0.85387950  0.60333884     0.25500
C1237       C  0.00133647  0.84234576  0.60669850    -0.12100
C1238       C  0.00317151  0.81680098  0.61446378    -0.26200
C1239       C  0.98059015  0.80243603  0.61751371     0.36500
C1240       C  0.95668452  0.81408351  0.61435261    -0.27800
F1241       F  0.97640991  0.87881436  0.59639102    -0.19900
H1242       H  0.01844195  0.85370699  0.60399523     0.15800
F1243       F  0.98149126  0.77782229  0.62535631    -0.23600
H1244       H  0.93957607  0.80319629  0.61830952     0.17600
C1245       C  0.11679373  0.91603731  0.62738074    -0.27700
C1246       C  0.14076791  0.91816011  0.61643999     0.05900
C1247       C  0.15227159  0.89569598  0.60752627     0.25500
C1248       C  0.14028209  0.87175469  0.61002320    -0.12200
C1249       C  0.11666364  0.86955795  0.62158175    -0.26100
C1250       C  0.10482344  0.89211112  0.62991197     0.36300
C1251       C  0.15412241  0.94354051  0.61567772     0.05900
F1252       F  0.17519649  0.89680363  0.59649996    -0.19900
H1253       H  0.14995496  0.85476684  0.60351898     0.15800
F1254       F  0.08186692  0.89107967  0.64089030    -0.23600
H1255       H  0.10762406  0.93287085  0.63473548     0.17500
C1256       C  0.14085496  0.96628657  0.60991239     0.25500
C1257       C  0.15280165  0.99029815  0.61198377    -0.12100
C1258       C  0.17837282  0.99215946  0.61929515    -0.26200
C1259       C  0.19205985  0.96938762  0.62390419     0.36500
C1260       C  0.17996090  0.94541810  0.62230662    -0.27800
F1261       F  0.11623700  0.96535060  0.60247518    -0.19900
H1262       H  0.14189057  0.00754570  0.60824344     0.15800
F1263       F  0.21660784  0.97033257  0.63152399    -0.23600
H1264       H  0.19056137  0.92837006  0.62726382     0.17600
C1265       C  0.07027896  0.77430898  0.52036325    -0.27700
C1266       C  0.09364904  0.77773161  0.50877078     0.05900
C1267       C  0.11612985  0.78016344  0.52207747     0.25500
C1268       C  0.11507470  0.77918465  0.54639440    -0.12200
C1269       C  0.09163575  0.77572141  0.55801572    -0.26100
C1270       C  0.06918179  0.77323554  0.54458109     0.36300
C1271       C  0.09419712  0.77900918  0.48290877     0.05900
F1272       F  0.13921008  0.78296559  0.51158263    -0.19900
H1273       H  0.13268301  0.78111434  0.55612804     0.15800
F1274       F  0.04595445  0.77007415  0.55472300    -0.23600
H1275       H  0.05263677  0.77281977  0.51061112     0.17500
C1276       C  0.08120556  0.76063751  0.46935274     0.25500
C1277       C  0.08128803  0.76234327  0.44511210    -0.12100
C1278       C  0.09443383  0.78226180  0.43372517    -0.26200
C1279       C  0.10737204  0.80072367  0.44731142     0.36500
C1280       C  0.10716509  0.79906326  0.47157701    -0.27800
F1281       F  0.06894828  0.74058095  0.47950869    -0.19900
H1282       H  0.07137113  0.74770852  0.43522350     0.15800
F1283       F  0.12004996  0.82058275  0.43725310    -0.23600
H1284       H  0.11691260  0.81372812  0.48156676     0.17600
C1285       C  0.99769252  0.75919470  0.71974054    -0.27700
C1286       C  0.01261183  0.74672234  0.73653969     0.05900
C1287       C  0.03706483  0.73758744  0.73041242     0.25500
C1288       C  0.04677912  0.74199269  0.70804580    -0.12200
C1289       C  0.03247081  0.75611902  0.69182138    -0.26100
C1290       C  0.00760518  0.76416508  0.69768034     0.36300
C1291       C  0.00395118  0.74746706  0.76100028     0.05900
F1292       F  0.05198083  0.72565813  0.74639922    -0.19900
H1293       H  0.06614020  0.73603626  0.70396249     0.15800
F1294       F  0.99339253  0.77799148  0.68241074    -0.23600
H1295       H  0.97896084  0.76665130  0.72424334     0.17500
C1296       C  0.01522267  0.76514774  0.77630780     0.25500
C1297       C  0.00358686  0.77072959  0.79753741    -0.12100
C1298       C  0.98080194  0.75843631  0.80413830    -0.26200
C1299       C  0.97063759  0.73916108  0.78971010     0.36500
C1300       C  0.98193882  0.73406431  0.76806927    -0.27800
F1301       F  0.03633155  0.77858057  0.76989443    -0.19900
H1302       H  0.01183524  0.78551885  0.80847064     0.15800
F1303       F  0.94871931  0.72683002  0.79564146    -0.23600
H1304       H  0.97289751  0.72052399  0.75638432     0.17600
C1305       C  0.12796987  0.81537868  0.74099294    -0.27700
C1306       C  0.15453417  0.81900625  0.74096426     0.05900
C1307       C  0.16831766  0.81470750  0.72035682     0.25500
C1308       C  0.15538681  0.80880231  0.69977817    -0.12200
C1309       C  0.12855708  0.80692017  0.69947747    -0.26100
C1310       C  0.11505311  0.80929946  0.72058837     0.36300
C1311       C  0.16685334  0.82998661  0.76185679     0.05900
F1312       F  0.19419729  0.81682064  0.72002646    -0.19900
H1313       H  0.16632231  0.80657073  0.68394582     0.15800
F1314       F  0.08921371  0.80675826  0.72153274    -0.23600
H1315       H  0.11695834  0.81852452  0.75666797     0.17500
C1316       C  0.18107213  0.85286661  0.76017518     0.25500
C1317       C  0.18857603  0.86588556  0.78016994    -0.12100
C1318       C  0.18203050  0.85646144  0.80217499    -0.26200
C1319       C  0.16895842  0.83294575  0.80399191     0.36500
C1320       C  0.16137840  0.81987409  0.78392533    -0.27800
F1321       F  0.18590934  0.86382247  0.73927101    -0.19900
H1322       H  0.19863944  0.88400061  0.77843018     0.15800
F1323       F  0.16178915  0.82365309  0.82500654    -0.23600
H1324       H  0.15024883  0.80240257  0.78558662     0.17600
C1325       C  0.82773142  0.15177113  0.27651423    -0.27700
C1326       C  0.82316137  0.17291183  0.26198474     0.05900
C1327       C  0.82951238  0.19777724  0.26975694     0.25500
C1328       C  0.84230432  0.20105728  0.29092063    -0.12200
C1329       C  0.84913443  0.17952676  0.30421323    -0.26100
C1330       C  0.84085184  0.15497565  0.29735616     0.36300
C1331       C  0.81680997  0.16785117  0.23742851     0.05900
F1332       F  0.82490919  0.21857265  0.25615120    -0.19900
H1333       H  0.84865018  0.22008733  0.29598002     0.15800
F1334       F  0.84697808  0.13388261  0.31010656    -0.23600
H1335       H  0.82310231  0.13246486  0.27078478     0.17500
C1336       C  0.83512315  0.17335605  0.22024758     0.25500
C1337       C  0.83293525  0.16251319  0.19819167    -0.12100
C1338       C  0.81226878  0.14650544  0.19284395    -0.26200
C1339       C  0.79292515  0.14248805  0.20934230     0.36500
C1340       C  0.79533258  0.15294087  0.23162203    -0.27800
F1341       F  0.85649904  0.18697055  0.22549699    -0.19900
H1342       H  0.84815487  0.16536593  0.18568899     0.15800
F1343       F  0.77300703  0.12659714  0.20455974    -0.23600
H1344       H  0.78128425  0.14815749  0.24474054     0.17600
C1345       C  0.99723557  0.24081425  0.27585148    -0.27700
C1346       C  0.99107482  0.23028700  0.25417197     0.05900
C1347       C  0.96787580  0.21700779  0.25152395     0.25500
C1348       C  0.95196104  0.21285080  0.27066078    -0.12200
C1349       C  0.95881162  0.22195675  0.29277847    -0.26100
C1350       C  0.98114950  0.23701743  0.29497357     0.36300
C1351       C  0.01040570  0.22953997  0.23542584     0.05900
F1352       F  0.96165767  0.20620677  0.23084424    -0.19900
H1353       H  0.93491164  0.20130069  0.26837195     0.15800
F1354       F  0.98851023  0.24651732  0.31586103    -0.23600
H1355       H  0.01511549  0.25101274  0.27817859     0.17500
C1356       C  0.00579543  0.24083418  0.21370788     0.25500
C1357       C  0.02250578  0.23619159  0.19512534    -0.12100
C1358       C  0.04384469  0.21989678  0.19785045    -0.26200
C1359       C  0.04906276  0.20978791  0.22007612     0.36500
C1360       C  0.03254868  0.21473428  0.23860344    -0.27800
F1361       F  0.98469949  0.25561514  0.21031508    -0.19900
H1362       H  0.01798295  0.24427829  0.17831565     0.15800
F1363       F  0.06945789  0.19412698  0.22380276    -0.23600
H1364       H  0.03633069  0.20580972  0.25523248     0.17600
C1365       C  0.02320611  0.12620174  0.36403317    -0.27700
C1366       C  0.04472936  0.14211790  0.36663009     0.05900
C1367       C  0.04097707  0.16886896  0.36905096     0.25500
C1368       C  0.01624579  0.17935417  0.36848211    -0.12200
C1369       C  0.99489953  0.16348289  0.36497095    -0.26100
C1370       C  0.99855704  0.13672182  0.36312575     0.36300
C1371       C  0.07093841  0.13086357  0.36528603     0.05900
F1372       F  0.06126947  0.18505907  0.37045882    -0.19900
H1373       H  0.01389248  0.20004422  0.36947642     0.15800
F1374       F  0.97827185  0.12075464  0.36018133    -0.23600
H1375       H  0.02554366  0.10557181  0.36229754     0.17500
C1376       C  0.08985523  0.13702474  0.38173753     0.25500
C1377       C  0.11483741  0.12759070  0.37925772    -0.12100
C1378       C  0.12136978  0.11141265  0.36063071    -0.26200
C1379       C  0.10223450  0.10452268  0.34459947     0.36500
C1380       C  0.07734605  0.11421404  0.34693719    -0.27800
F1381       F  0.08413714  0.15194213  0.40036192    -0.19900
H1382       H  0.12914415  0.13295841  0.39194989     0.15800
F1383       F  0.10781767  0.08945951  0.32601528    -0.23600
H1384       H  0.06318861  0.10927487  0.33396937     0.17600
C1385       C  0.84912417  0.08019585  0.37449864    -0.27700
C1386       C  0.86672841  0.05988996  0.37654193     0.05900
C1387       C  0.89311587  0.06560347  0.37605998     0.25500
C1388       C  0.90147610  0.09088872  0.37249747    -0.12200
C1389       C  0.88376261  0.11101062  0.36989022    -0.26100
C1390       C  0.85743393  0.10545866  0.37147710     0.36300
C1391       C  0.85729009  0.03286188  0.37658698     0.05900
F1392       F  0.91085673  0.04674708  0.37881345    -0.19900
H1393       H  0.92182419  0.09470032  0.37159006     0.15800
F1394       F  0.83952777  0.12419258  0.36883070    -0.23600
H1395       H  0.82875850  0.07643838  0.37415956     0.17500
C1396       C  0.83532861  0.02556509  0.38920671     0.25500
C1397       C  0.82452077  0.00113880  0.38607941    -0.12100
C1398       C  0.83548207  0.98348248  0.37049387    -0.26200
C1399       C  0.85840704  0.99023082  0.35912437     0.36500
C1400       C  0.86888900  0.01467694  0.36195438    -0.27800
F1401       F  0.82399464  0.04218621  0.40421866    -0.19900
H1402       H  0.80707942  0.99639400  0.39527041     0.15800
F1403       F  0.87041713  0.97354966  0.34459724    -0.23600
H1404       H  0.88552271  0.01971672  0.35173795     0.17600
C1405       C  0.09956494  0.13475218  0.60259467    -0.27700
C1406       C  0.07922974  0.12640158  0.61658498     0.05900
C1407       C  0.08346438  0.10649682  0.63258571     0.25500
C1408       C  0.10787794  0.09594016  0.63522322    -0.12200
C1409       C  0.12861447  0.10490458  0.62192379    -0.26100
C1410       C  0.12403341  0.12401608  0.60505551     0.36300
C1411       C  0.05406128  0.13950042  0.61572468    -0.03700
F1412       F  0.06428218  0.09823983  0.64660313    -0.19900
H1413       H  0.11067109  0.08124466  0.64829123     0.15800
F1414       F  0.14326069  0.13300850  0.59148356    -0.23600
H1415       H  0.09655742  0.14995956  0.59004682     0.17500
C1416       C  0.05200087  0.16582171  0.62108829     0.25500
C1417       C  0.02791205  0.17741185  0.62310707    -0.12100
C1418       C  0.00551073  0.16288961  0.62007052    -0.26200
C1419       C  0.00764517  0.13680260  0.61368072     0.36500
C1420       C  0.03173612  0.12527411  0.61154963    -0.27800
F1421       F  0.07321253  0.17988551  0.62590511    -0.19900
H1422       H  0.02677715  0.19742322  0.62828739     0.15800
F1423       F  0.98645075  0.12230379  0.60995099    -0.23600
H1424       H  0.03298851  0.10501337  0.60724440     0.17600
C1425       C  0.86657654  0.08419074  0.59644716    -0.27700
C1426       C  0.87272597  0.06357091  0.61115739     0.05900
C1427       C  0.89069270  0.06749536  0.62895760     0.25500
C1428       C  0.90143252  0.09178051  0.63252565    -0.12200
C1429       C  0.89458126  0.11278970  0.61846661    -0.26100
C1430       C  0.87746759  0.10855719  0.59991564     0.36300
C1431       C  0.85943947  0.03840098  0.60910342     0.05900
F1432       F  0.89680466  0.04816252  0.64379148    -0.19900
H1433       H  0.91450186  0.09429020  0.64691658     0.15800
F1434       F  0.87057674  0.12804618  0.58554891    -0.23600
H1435       H  0.85298250  0.08150356  0.58248696     0.17500
C1436       C  0.83261081  0.03679441  0.61070958     0.25500
C1437       C  0.82065756  0.01281892  0.61332446    -0.12100
C1438       C  0.83523039  0.99006900  0.61432811    -0.26200
C1439       C  0.86189564  0.99165684  0.61067069     0.36500
C1440       C  0.87376798  0.01557902  0.60817944    -0.27800
F1441       F  0.81812706  0.05847940  0.61156672    -0.19900
H1442       H  0.80014781  0.01223608  0.61596078     0.15800
F1443       F  0.87677198  0.97020704  0.61053675    -0.23600
H1444       H  0.89439915  0.01636127  0.60648561     0.17600
C1445       C  0.89806576  0.20051401  0.52050559    -0.27700
C1446       C  0.92121863  0.20066031  0.50818766     0.05900
C1447       C  0.94431978  0.20271296  0.52051499     0.25500
C1448       C  0.94412414  0.20466400  0.54474076    -0.12200
C1449       C  0.92090782  0.20468775  0.55715443    -0.26100
C1450       C  0.89780025  0.20252341  0.54467692     0.36300
C1451       C  0.92084250  0.19975219  0.48248000     0.05900
F1452       F  0.96707886  0.20236780  0.50915985    -0.19900
H1453       H  0.96222685  0.20599926  0.55379058     0.15800
F1454       F  0.87484460  0.20253332  0.55569460    -0.23600
H1455       H  0.88004205  0.19927582  0.51130421     0.17500
C1456       C  0.90739959  0.18033501  0.47068475     0.25500
C1457       C  0.90514757  0.18104594  0.44652472    -0.12100
C1458       C  0.91629156  0.20107930  0.43360709    -0.26200
C1459       C  0.93043763  0.22008141  0.44544192     0.36500
C1460       C  0.93262658  0.21934708  0.46961604    -0.27800
F1461       F  0.89648761  0.16063927  0.48254654    -0.19900
H1462       H  0.89450510  0.16592377  0.43793551     0.15800
F1463       F  0.94152608  0.23985254  0.43383277    -0.23600
H1464       H  0.94289774  0.23459778  0.47839478     0.17600
C1465       C  0.01672785  0.23426415  0.71086243    -0.27700
C1466       C  0.00448553  0.23582643  0.73254227     0.05900
C1467       C  0.97757715  0.23557726  0.73332853     0.25500
C1468       C  0.96336053  0.23162514  0.71299974    -0.12200
C1469       C  0.97574563  0.22836124  0.69160200    -0.26100
C1470       C  0.00249546  0.23058752  0.69053698     0.36300
C1471       C  0.01953058  0.23218191  0.75417527     0.05900
F1472       F  0.96518996  0.23657411  0.75400083    -0.19900
H1473       H  0.94278800  0.22942396  0.71417377     0.15800
F1474       F  0.01495795  0.22703866  0.67011902    -0.23600
H1475       H  0.03743045  0.23415929  0.70989371     0.17500
C1476       C  0.03268224  0.20889848  0.75741017     0.25500
C1477       C  0.04402234  0.20326849  0.77866776    -0.12100
C1478       C  0.04297198  0.22077464  0.79726521    -0.26200
C1479       C  0.03100445  0.24475926  0.79375870     0.36500
C1480       C  0.01902221  0.25023293  0.77241396    -0.27800
F1481       F  0.03327071  0.19083497  0.74038359    -0.19900
H1482       H  0.05321115  0.18471038  0.78073710     0.15800
F1483       F  0.02973260  0.26224742  0.81120593    -0.23600
H1484       H  0.00891388  0.26828155  0.77025583     0.17600
C1485       C  0.83169778  0.11494299  0.75348577    -0.27700
C1486       C  0.83367067  0.14183319  0.75352233     0.05900
C1487       C  0.82836256  0.15552556  0.77395990     0.25500
C1488       C  0.82312838  0.14233745  0.79449965    -0.12200
C1489       C  0.82311728  0.11528892  0.79496639    -0.26100
C1490       C  0.82647100  0.10168036  0.77398192     0.36300
C1491       C  0.84508129  0.15486527  0.73331050     0.05900
F1492       F  0.82935273  0.18162437  0.77422313    -0.19900
H1493       H  0.82009877  0.15333811  0.81022531     0.15800
F1494       F  0.82592627  0.07555949  0.77333230    -0.23600
H1495       H  0.83574470  0.10410675  0.73784240     0.17500
C1496       C  0.86847001  0.16780611  0.73588845     0.25500
C1497       C  0.88163494  0.17661311  0.71647178    -0.12100
C1498       C  0.87182457  0.17263415  0.69409850    -0.26200
C1499       C  0.84769973  0.16087557  0.69155790     0.36500
C1500       C  0.83457457  0.15184718  0.71108866    -0.27800
F1501       F  0.87956920  0.17017439  0.75706341    -0.19900
H1502       H  0.90014707  0.18557256  0.71891476     0.15800
F1503       F  0.83760139  0.15652521  0.67023126    -0.23600
H1504       H  0.81665095  0.14170523  0.70884366     0.17600
C1505       C  0.32834147  0.12755099  0.61883472    -0.27700
C1506       C  0.32914321  0.14902984  0.63371354     0.05900
C1507       C  0.30871805  0.15303197  0.64918145     0.25500
C1508       C  0.28760018  0.13654159  0.64908844    -0.12200
C1509       C  0.28625817  0.11558351  0.63366948    -0.26100
C1510       C  0.30723635  0.11079150  0.61892831     0.36300
C1511       C  0.34953983  0.16887040  0.63130281     0.05900
F1512       F  0.30829625  0.17396261  0.66328142    -0.19900
H1513       H  0.27176035  0.14075697  0.66061805     0.15800
F1514       F  0.30668442  0.09096202  0.60360692    -0.23600
H1515       H  0.34377769  0.12420056  0.60665526     0.17500
C1516       C  0.36350430  0.17779094  0.65061658     0.25500
C1517       C  0.37973237  0.19920504  0.64857082    -0.12100
C1518       C  0.38190533  0.21228199  0.62737926    -0.26200
C1519       C  0.36891024  0.20263868  0.60787351     0.36500
C1520       C  0.35314268  0.18099374  0.60979773    -0.27800
F1521       F  0.36078105  0.16632786  0.67160838    -0.19900
H1522       H  0.38938530  0.20648825  0.66383822     0.15800
F1523       F  0.37079165  0.21475179  0.58708792    -0.23600
H1524       H  0.34257246  0.17457187  0.59471693     0.17600
C1525       C  0.33999665  0.19065122  0.34158802    -0.27700
C1526       C  0.34473024  0.17050326  0.35715785     0.05900
C1527       C  0.36668095  0.17143734  0.37120015     0.25500
C1528       C  0.38300622  0.19281899  0.37033722    -0.12200
C1529       C  0.37739235  0.21380365  0.35579295    -0.26100
C1530       C  0.35601668  0.21217549  0.34094432     0.36300
C1531       C  0.32504087  0.15034602  0.36041289     0.05900
F1532       F  0.37180976  0.15206767  0.38627806    -0.19900
H1533       H  0.39927199  0.19354792  0.38194824     0.15800
F1534       F  0.35008271  0.23173494  0.32629204    -0.23600
H1535       H  0.32311201  0.19027033  0.33069968     0.17500
C1536       C  0.31013864  0.15023381  0.38068108     0.25500
C1537       C  0.28891281  0.13401946  0.38243980    -0.12100
C1538       C  0.28239741  0.11728476  0.36422600    -0.26200
C1539       C  0.29805248  0.11643870  0.34439743     0.36500
C1540       C  0.31904379  0.13313287  0.34241780    -0.27800
F1541       F  0.31514717  0.16701322  0.39815580    -0.19900
H1542       H  0.27700868  0.13511513  0.39780033     0.15800
F1543       F  0.29196368  0.10091648  0.32629348    -0.23600
H1544       H  0.33017144  0.13321121  0.32656858     0.17600
C1545       C  0.38707712  0.27942903  0.51999688    -0.27700
C1546       C  0.41004919  0.27871999  0.50736095     0.05900
C1547       C  0.43346640  0.28026179  0.51941222     0.25500
C1548       C  0.43378966  0.28132121  0.54362704    -0.12200
C1549       C  0.41082783  0.28186102  0.55613039    -0.26100
C1550       C  0.38741359  0.28120963  0.54415853     0.36300
C1551       C  0.40944390  0.27674865  0.48169198     0.05900
F1552       F  0.45600885  0.28153821  0.50777739    -0.19900
H1553       H  0.45196164  0.28231739  0.55261732     0.15800
F1554       F  0.36487098  0.28145510  0.55588305    -0.23600
H1555       H  0.36883410  0.27828715  0.51115432     0.17500
C1556       C  0.42549453  0.25933569  0.46990102     0.25500
C1557       C  0.42620857  0.25906632  0.44570240    -0.12100
C1558       C  0.41031089  0.27544741  0.43280415    -0.26200
C1559       C  0.39313443  0.29178443  0.44451196     0.36500
C1560       C  0.39290230  0.29254577  0.46875500    -0.27800
F1561       F  0.44024810  0.24232447  0.48175665    -0.19900
H1562       H  0.43913332  0.24590540  0.43699175     0.15800
F1563       F  0.37745039  0.30786705  0.43257251    -0.23600
H1564       H  0.38024891  0.30599489  0.47742462     0.17600
C1565       C  0.19677122  0.65078810  0.61077262    -0.27700
C1566       C  0.18213244  0.65080215  0.63115673     0.05900
C1567       C  0.18918426  0.63434071  0.64946961     0.25500
C1568       C  0.21121294  0.61899037  0.64768972    -0.12200
C1569       C  0.22669183  0.62031362  0.62784473    -0.26100
C1570       C  0.21895284  0.63589172  0.60915778     0.36300
C1571       C  0.16136604  0.67005890  0.63379618     0.05900
F1572       F  0.17518704  0.63371014  0.66928524    -0.19900
H1573       H  0.21691254  0.60716024  0.66226185     0.15800
F1574       F  0.23325288  0.63721416  0.58952061    -0.23600
H1575       H  0.19172111  0.66336118  0.59650517     0.17500
C1576       C  0.16290795  0.68886488  0.65126225     0.25500
C1577       C  0.14585382  0.70959131  0.65146170    -0.12100
C1578       C  0.12683018  0.71192409  0.63438627    -0.26200
C1579       C  0.12445407  0.69245803  0.61754666     0.36500
C1580       C  0.14177064  0.67182385  0.61718114    -0.27800
F1581       F  0.18210541  0.68826484  0.66710096    -0.19900
H1582       H  0.14815264  0.72442840  0.66450477     0.15800
F1583       F  0.10671767  0.69436039  0.60044249    -0.23600
H1584       H  0.14048454  0.65767538  0.60342704     0.17600
C1585       C  0.39206015  0.41975305  0.61337021    -0.27700
C1586       C  0.36571014  0.42539145  0.61323901     0.05900
C1587       C  0.34824271  0.40483963  0.61471809     0.25500
C1588       C  0.35702813  0.37958012  0.61773274    -0.12200
C1589       C  0.38333395  0.37424440  0.61963107    -0.26100
C1590       C  0.40083981  0.39456541  0.61675914     0.36300
C1591       C  0.35672788  0.45267498  0.61405864     0.05900
F1592       F  0.32264225  0.40925675  0.61485347    -0.19900
H1593       H  0.34310411  0.36432988  0.61977275     0.15800
F1594       F  0.42644828  0.39024794  0.61765343    -0.23600
H1595       H  0.40595741  0.43506311  0.61158446     0.17500
C1596       C  0.36800412  0.47008360  0.62969455     0.25500
C1597       C  0.35833326  0.49496229  0.63213356    -0.12100
C1598       C  0.33689787  0.50325865  0.61939366    -0.26200
C1599       C  0.32595202  0.48615622  0.60323611     0.36500
C1600       C  0.33590449  0.46117698  0.60055746    -0.27800
F1601       F  0.38752130  0.46266968  0.64372194    -0.19900
H1602       H  0.36726063  0.50749281  0.64476867     0.15800
F1603       F  0.30523833  0.49318874  0.59053791    -0.23600
H1604       H  0.32703708  0.44831180  0.58817334     0.17600
C1605       C  0.17582974  0.62209932  0.36423307    -0.27700
C1606       C  0.17777241  0.64777552  0.35682434     0.05900
C1607       C  0.20088746  0.65647257  0.34739188     0.25500
C1608       C  0.22206884  0.64023078  0.34632848    -0.12200
C1609       C  0.22093827  0.61490052  0.35492906    -0.26100
C1610       C  0.19725798  0.60564715  0.36324371     0.36300
C1611       C  0.15735584  0.66687596  0.36135321     0.05900
F1612       F  0.20333699  0.68126424  0.34030096    -0.19900
H1613       H  0.23979604  0.64803101  0.33962389     0.15800
F1614       F  0.19508114  0.58126763  0.37142066    -0.23600
H1615       H  0.15810236  0.61517059  0.37167023     0.17500
C1616       C  0.13744352  0.67114125  0.34542550     0.25500
C1617       C  0.12225294  0.69343192  0.34711487    -0.12100
C1618       C  0.12709029  0.71181518  0.36449108    -0.26200
C1619       C  0.14591138  0.70645377  0.38129766     0.36500
C1620       C  0.16081325  0.68422409  0.37967994    -0.27800
F1621       F  0.13385479  0.65469695  0.32743383    -0.19900
H1622       H  0.10783050  0.69708219  0.33404024     0.15800
F1623       F  0.15060673  0.72320179  0.39887121    -0.23600
H1624       H  0.17615286  0.68125722  0.39203370     0.17600
C1625       C  0.39070025  0.41769592  0.36714560    -0.27700
C1626       C  0.36816202  0.42014079  0.38026541     0.05900
C1627       C  0.35756085  0.39801490  0.39046629     0.25500
C1628       C  0.36862888  0.37384418  0.38662307    -0.12200
C1629       C  0.39034220  0.37118476  0.37237397    -0.26100
C1630       C  0.40172858  0.39353244  0.36320222     0.36300
C1631       C  0.35451005  0.44524170  0.38100474     0.05900
F1632       F  0.33613640  0.39969248  0.40370417    -0.19900
H1633       H  0.35952364  0.35705959  0.39406753     0.15800
F1634       F  0.42307653  0.39206137  0.34984331    -0.23600
H1635       H  0.39913406  0.43441418  0.35896608     0.17500
C1636       C  0.36755383  0.46827320  0.38592975     0.25500
C1637       C  0.35536890  0.49204739  0.38283827    -0.12100
C1638       C  0.32990427  0.49328466  0.37506579    -0.26200
C1639       C  0.31643195  0.47019662  0.37143182     0.36500
C1640       C  0.32869442  0.44648374  0.37430785    -0.27800
F1641       F  0.39224454  0.46779121  0.39321282    -0.19900
H1642       H  0.36608789  0.50955082  0.38589030     0.15800
F1643       F  0.29204535  0.47046228  0.36333474    -0.23600
H1644       H  0.31835712  0.42906306  0.37004033     0.17600
C1645       C  0.30946186  0.59712413  0.51701429    -0.27700
C1646       C  0.28788946  0.58566104  0.50679175     0.05900
C1647       C  0.26869945  0.57550253  0.52118974     0.25500
C1648       C  0.27112969  0.57681406  0.54528824    -0.12200
C1649       C  0.29262118  0.58840940  0.55556882    -0.26100
C1650       C  0.31184805  0.59858177  0.54114822     0.36300
C1651       C  0.28568732  0.58414908  0.48116670     0.05900
F1652       F  0.24728256  0.56486735  0.51197417    -0.19900
H1653       H  0.25592873  0.56901645  0.55593624     0.15800
F1654       F  0.33320101  0.60942737  0.55028598    -0.23600
H1655       H  0.32467658  0.60469820  0.50625288     0.17500
C1656       C  0.28936694  0.60610138  0.46735423     0.25500
C1657       C  0.28813661  0.60431546  0.44320145    -0.12100
C1658       C  0.28320880  0.58063217  0.43223335    -0.26200
C1659       C  0.27904243  0.55871636  0.44614723     0.36500
C1660       C  0.28031601  0.56055042  0.47033261    -0.27800
F1661       F  0.29386613  0.62938417  0.47722423    -0.19900
H1662       H  0.29128720  0.62156440  0.43307259     0.15800
F1663       F  0.27411270  0.53540414  0.43650933    -0.23600
H1664       H  0.27759802  0.54334647  0.48063160     0.17600
C1665       C  0.64516409  0.81038526  0.65045444    -0.27700
C1666       C  0.66196137  0.81704935  0.63236344     0.05900
C1667       C  0.66178845  0.80232082  0.61193452     0.25500
C1668       C  0.64603712  0.78066291  0.61010713    -0.12200
C1669       C  0.62977106  0.77342694  0.62841338    -0.26100
C1670       C  0.62889532  0.78895083  0.64840468     0.36300
C1671       C  0.68200369  0.83698148  0.63573012     0.05900
F1672       F  0.67811664  0.80790012  0.59432690    -0.19900
H1673       H  0.64711477  0.76900749  0.59454760     0.15800
F1674       F  0.61371604  0.78238636  0.66654946    -0.23600
H1675       H  0.64525091  0.82133615  0.66644116     0.17500
C1676       C  0.68284567  0.85934833  0.62200020     0.25500
C1677       C  0.70422192  0.87572688  0.62284981    -0.12100
C1678       C  0.72531626  0.86975379  0.63703058    -0.26200
C1679       C  0.72377394  0.84797046  0.65156131     0.36500
C1680       C  0.70227768  0.83194968  0.65097561    -0.27800
F1681       F  0.66340992  0.86482372  0.60719864    -0.19900
H1682       H  0.70489256  0.89225203  0.61143341     0.15800
F1683       F  0.74346529  0.84157103  0.66579326    -0.23600
H1684       H  0.70204871  0.81476433  0.66160081     0.17600
C1685       C  0.48141756  0.62905492  0.62380052    -0.27700
C1686       C  0.46511476  0.64094419  0.60775350     0.05900
C1687       C  0.47407739  0.66250920  0.59540940     0.25500
C1688       C  0.49842281  0.67265873  0.60007428    -0.12200
C1689       C  0.51419554  0.66149477  0.61711798    -0.26100
C1690       C  0.50562433  0.63901147  0.62841221     0.36300
C1691       C  0.43800462  0.63246692  0.60655431     0.05900
F1692       F  0.45911739  0.67403264  0.57920941    -0.19900
H1693       H  0.50458434  0.68970715  0.59085182     0.15800
F1694       F  0.52010376  0.62704251  0.64470806    -0.23600
H1695       H  0.47489959  0.61266478  0.63376902     0.17500
C1696       C  0.43167618  0.60614878  0.60558361     0.25500
C1697       C  0.40655906  0.59807294  0.60979915    -0.12100
C1698       C  0.38722360  0.61606575  0.61475683    -0.26200
C1699       C  0.39326116  0.64250842  0.61416825     0.36500
C1700       C  0.41839815  0.65051763  0.61016305    -0.27800
F1701       F  0.44998045  0.58818590  0.60133826    -0.19900
H1702       H  0.40237157  0.57766354  0.60977931     0.15800
F1703       F  0.37533065  0.66065631  0.61906369    -0.23600
H1704       H  0.42280926  0.67083521  0.61137304     0.17600
C1705       C  0.66652632  0.79427003  0.34482595    -0.27700
C1706       C  0.65965170  0.81622509  0.35749977     0.05900
C1707       C  0.63605026  0.81662309  0.36919853     0.25500
C1708       C  0.62000213  0.79495473  0.36879281    -0.12200
C1709       C  0.62746125  0.77238252  0.35705843    -0.26100
C1710       C  0.65077418  0.77253456  0.34463063     0.36300
C1711       C  0.67865270  0.83714741  0.36040801     0.05900
F1712       F  0.62887732  0.83772138  0.38148316    -0.19900
H1713       H  0.60224473  0.79547860  0.37846942     0.15800
F1714       F  0.65880342  0.75145619  0.33272645    -0.23600
H1715       H  0.68472683  0.79357720  0.33583494     0.17500
C1716       C  0.69196949  0.83947107  0.38144041     0.25500
C1717       C  0.71309767  0.85583734  0.38310817    -0.12100
C1718       C  0.72108315  0.87055054  0.36400003    -0.26200
C1719       C  0.70686822  0.86941857  0.34333789     0.36500
C1720       C  0.68598214  0.85253666  0.34149573    -0.27800
F1721       F  0.68566292  0.82451193  0.39986275    -0.19900
H1722       H  0.72392356  0.85626666  0.39912457     0.15800
F1723       F  0.71441907  0.88297575  0.32443614    -0.23600
H1724       H  0.67611056  0.85073313  0.32506841     0.17600
C1725       C  0.40457101  0.64265500  0.38599618    -0.27700
C1726       C  0.42599991  0.63362446  0.37369034     0.05900
C1727       C  0.42312272  0.61208197  0.35912062     0.25500
C1728       C  0.39937431  0.60001578  0.35683981    -0.12200
C1729       C  0.37778339  0.60908787  0.36891741    -0.26100
C1730       C  0.38069064  0.63055188  0.38371311     0.36300
C1731       C  0.45129845  0.64664072  0.37560885     0.05900
F1732       F  0.44310227  0.60325909  0.34630811    -0.19900
H1733       H  0.39781021  0.58379665  0.34511980     0.15800
F1734       F  0.36039369  0.64037222  0.39547003    -0.23600
H1735       H  0.40632491  0.65915427  0.39736860     0.17500
C1736       C  0.45399910  0.67322882  0.37150640     0.25500
C1737       C  0.47843044  0.68434651  0.37023920    -0.12100
C1738       C  0.50053631  0.66914935  0.37287863    -0.26200
C1739       C  0.49768634  0.64293350  0.37847297     0.36500
C1740       C  0.47335208  0.63191940  0.37987780    -0.27800
F1741       F  0.43318643  0.68810258  0.36711475    -0.19900
H1742       H  0.48006557  0.70452157  0.36576904     0.15800
F1743       F  0.51846484  0.62768323  0.38187092    -0.23600
H1744       H  0.47174603  0.61155314  0.38359207     0.17600
C1745       C  0.56677460  0.70902015  0.47010046    -0.27700
C1746       C  0.59035041  0.70885875  0.48164804     0.05900
C1747       C  0.61310334  0.70938255  0.46868796     0.25500
C1748       C  0.61223163  0.70969686  0.44448811    -0.12200
C1749       C  0.58865637  0.70954738  0.43280126    -0.26100
C1750       C  0.56582869  0.70931106  0.44590191     0.36300
C1751       C  0.59119314  0.70742118  0.50719048     0.05900
F1752       F  0.63616588  0.70993578  0.47948821    -0.19900
H1753       H  0.63005022  0.71013105  0.43489860     0.15800
F1754       F  0.54256650  0.70874465  0.43543505    -0.23600
H1755       H  0.54907096  0.70840702  0.47986647     0.17500
C1756       C  0.57909998  0.72614948  0.52093172     0.25500
C1757       C  0.58080781  0.72490353  0.54508808    -0.12100
C1758       C  0.59448920  0.70490816  0.55594050    -0.26200
C1759       C  0.60596211  0.68576702  0.54205367     0.36500
C1760       C  0.60436633  0.68715936  0.51792500    -0.27800
F1761       F  0.56631462  0.74604260  0.51097874    -0.19900
H1762       H  0.57170858  0.73985281  0.55528426     0.15800
F1763       F  0.61858061  0.66558095  0.55168050    -0.23600
H1764       H  0.61338923  0.67231526  0.50753691     0.17600
C1765       C  0.81585301  0.33618422  0.60877263    -0.27700
C1766       C  0.82968524  0.33446941  0.62956878     0.05900
C1767       C  0.82232953  0.35012817  0.64840948     0.25500
C1768       C  0.80059941  0.36598092  0.64680042    -0.12200
C1769       C  0.78570944  0.36609011  0.62654766    -0.26100
C1770       C  0.79398157  0.35164396  0.60729115     0.36300
C1771       C  0.84962207  0.31415819  0.63202110     0.05900
F1772       F  0.83565310  0.34941279  0.66859088    -0.19900
H1773       H  0.79457049  0.37698257  0.66180763     0.15800
F1774       F  0.78040552  0.35187183  0.58722121    -0.23600
H1775       H  0.82115870  0.32438049  0.59403520     0.17500
C1776       C  0.84678155  0.29475414  0.64880629     0.25500
C1777       C  0.86297521  0.27329104  0.64875603    -0.12100
C1778       C  0.88255770  0.27077003  0.63218578    -0.26200
C1779       C  0.88624925  0.29076777  0.61606809     0.36500
C1780       C  0.86971883  0.31211633  0.61587492    -0.27800
F1781       F  0.82719248  0.29562189  0.66425613    -0.19900
H1782       H  0.85967193  0.25814787  0.66130434     0.15800
F1783       F  0.90464349  0.28887514  0.59952656    -0.23600
H1784       H  0.87209056  0.32670849  0.60264864     0.17600
C1785       C  0.67330300  0.52383190  0.60387657    -0.27700
C1786       C  0.65391357  0.53284873  0.61877083     0.05900
C1787       C  0.64438342  0.51612721  0.63589768     0.25500
C1788       C  0.65431301  0.49129261  0.63826464    -0.12200
C1789       C  0.67417591  0.48240026  0.62382785    -0.26100
C1790       C  0.68341359  0.49892440  0.60635089     0.36300
C1791       C  0.64426593  0.55984521  0.61717163     0.05900
F1792       F  0.62623129  0.52414234  0.65114129    -0.19900
H1793       H  0.64679178  0.47922566  0.65196348     0.15800
F1794       F  0.70245275  0.49128060  0.59187687    -0.23600
H1795       H  0.68076459  0.53617303  0.59035568     0.17500
C1796       C  0.66127106  0.58082623  0.61633732     0.25500
C1797       C  0.65200057  0.60612571  0.61748516    -0.12100
C1798       C  0.62564358  0.61111492  0.61973206    -0.26200
C1799       C  0.60857675  0.59013408  0.61948990     0.36500
C1800       C  0.61784263  0.56488543  0.61807083    -0.27800
F1801       F  0.68695194  0.57692384  0.61586964    -0.19900
H1802       H  0.66563198  0.62180192  0.61772844     0.15800
F1803       F  0.58292996  0.59387334  0.62120875    -0.23600
H1804       H  0.60429010  0.54913944  0.61821874     0.17600
C1805       C  0.52910315  0.35668915  0.63023331    -0.27700
C1806       C  0.54555289  0.34515789  0.61400103     0.05900
C1807       C  0.53638158  0.32438630  0.60071534     0.25500
C1808       C  0.51154880  0.31495764  0.60420865    -0.12200
C1809       C  0.49538741  0.32592710  0.62107844    -0.26100
C1810       C  0.50435928  0.34732438  0.63376443     0.36300
C1811       C  0.57272025  0.35363653  0.61268881     0.05900
F1812       F  0.55150363  0.31303090  0.58451674    -0.19900
H1813       H  0.50524201  0.29857269  0.59411169     0.15800
F1814       F  0.48961602  0.35884838  0.65016088    -0.23600
H1815       H  0.53577734  0.37243659  0.64094576     0.17500
C1816       C  0.57910273  0.37994558  0.61202969     0.25500
C1817       C  0.60454602  0.38780314  0.61473347    -0.12100
C1818       C  0.62419259  0.36962805  0.61784930    -0.26200
C1819       C  0.61798481  0.34324585  0.61702769     0.36500
C1820       C  0.59250956  0.33543342  0.61460305    -0.27800
F1821       F  0.56065021  0.39809733  0.60925427    -0.19900
H1822       H  0.60880132  0.40819737  0.61495312     0.15800
F1823       F  0.63623210  0.32493462  0.62007358    -0.23600
H1824       H  0.58812782  0.31509100  0.61544535     0.17600
C1825       C  0.80768599  0.33737121  0.34099853    -0.27700
C1826       C  0.82325081  0.33647757  0.36081651     0.05900
C1827       C  0.81801052  0.35342134  0.37931460     0.25500
C1828       C  0.79671878  0.36984805  0.37843629    -0.12200
C1829       C  0.78012607  0.36928280  0.35931457    -0.26100
C1830       C  0.78617258  0.35343297  0.34030473     0.36300
C1831       C  0.84266436  0.31569415  0.36310270     0.05900
F1832       F  0.83290800  0.35333357  0.39858979    -0.19900
H1833       H  0.79233054  0.38186232  0.39328280     0.15800
F1834       F  0.77079112  0.35292234  0.32134682    -0.23600
H1835       H  0.81134312  0.32450639  0.32657752     0.17500
C1836       C  0.84062273  0.29781828  0.38126667     0.25500
C1837       C  0.85672470  0.27639136  0.38203563    -0.12100
C1838       C  0.87530159  0.27217475  0.36478570    -0.26200
C1839       C  0.87802163  0.29048276  0.34698586     0.36500
C1840       C  0.86162992  0.31195119  0.34607943    -0.27800
F1841       F  0.82193781  0.30015716  0.39750630    -0.19900
H1842       H  0.85412025  0.26257744  0.39589788     0.15800
F1843       F  0.89539049  0.28687589  0.32978318    -0.23600
H1844       H  0.86331684  0.32536111  0.33179472     0.17600
C1845       C  0.61157282  0.56856592  0.35788843    -0.27700
C1846       C  0.63259960  0.56423368  0.37252139     0.05900
C1847       C  0.64211007  0.58492143  0.38571972     0.25500
C1848       C  0.63134246  0.60956752  0.38356670    -0.12200
C1849       C  0.61096870  0.61413992  0.36813715    -0.26100
C1850       C  0.60081423  0.59310531  0.35570482     0.36300
C1851       C  0.64540358  0.53858337  0.37254899     0.05900
F1852       F  0.66199328  0.58136153  0.40051502    -0.19900
H1853       H  0.63955301  0.62525811  0.39342688     0.15800
F1854       F  0.58094174  0.59625893  0.34082411    -0.23600
H1855       H  0.60401787  0.55306169  0.34737318     0.17500
C1856       C  0.63112456  0.51572989  0.37446980     0.25500
C1857       C  0.64304219  0.49173809  0.37186075    -0.12100
C1858       C  0.66945275  0.48995664  0.36744002    -0.26200
C1859       C  0.68387033  0.51279874  0.36620291     0.36500
C1860       C  0.67191249  0.53678817  0.36871833    -0.27800
F1861       F  0.60558343  0.51659245  0.37869825    -0.19900
H1862       H  0.63148662  0.47449380  0.37297171     0.15800
F1863       F  0.70925369  0.51209840  0.36122771    -0.23600
H1864       H  0.68325803  0.55406613  0.36669771     0.17600
C1865       C  0.57655073  0.37693033  0.36484375    -0.27700
C1866       C  0.57332847  0.35758957  0.38158482     0.05900
C1867       C  0.59476988  0.34937945  0.39435380     0.25500
C1868       C  0.61906550  0.35954208  0.38962706    -0.12200
C1869       C  0.62246614  0.37801095  0.37204388    -0.26100
C1870       C  0.60071160  0.38711782  0.36013074     0.36300
C1871       C  0.54806809  0.34462902  0.38373163     0.05900
F1872       F  0.59228601  0.33127624  0.41115366    -0.19900
H1873       H  0.63534561  0.35231915  0.39925435     0.15800
F1874       F  0.60273483  0.40533802  0.34337323    -0.23600
H1875       H  0.56043349  0.38343222  0.35459036     0.17500
C1876       C  0.52530362  0.35907045  0.38459408     0.25500
C1877       C  0.50164244  0.34698747  0.38168515    -0.12100
C1878       C  0.50009631  0.32025591  0.37795072    -0.26200
C1879       C  0.52270762  0.30554530  0.37905679     0.36500
C1880       C  0.54643492  0.31769487  0.38182886    -0.27800
F1881       F  0.52599285  0.38502020  0.38732187    -0.19900
H1882       H  0.48454109  0.35879293  0.38133637     0.15800
F1883       F  0.52219266  0.27970387  0.37567868    -0.23600
H1884       H  0.56367618  0.30614379  0.38095736     0.17600
C1885       C  0.72523422  0.38349453  0.46869785    -0.27700
C1886       C  0.71635058  0.40469746  0.48153457     0.05900
C1887       C  0.70752993  0.42661184  0.46958003     0.25500
C1888       C  0.70744647  0.42702983  0.44532332    -0.12200
C1889       C  0.71566737  0.40549931  0.43257839    -0.26100
C1890       C  0.72457947  0.38367180  0.44452072     0.36300
C1891       C  0.71590542  0.40342576  0.50726339     0.05900
F1892       F  0.69816582  0.44726781  0.48126904    -0.19900
H1893       H  0.70034838  0.44398968  0.43648855     0.15800
F1894       F  0.73309790  0.36261455  0.43287463    -0.23600
H1895       H  0.73274206  0.36665451  0.47742558     0.17500
C1896       C  0.70664645  0.38134471  0.51861186     0.25500
C1897       C  0.70660059  0.37999684  0.54275403    -0.12100
C1898       C  0.71568569  0.40057477  0.55619310    -0.26200
C1899       C  0.72470273  0.42282947  0.54492311     0.36500
C1900       C  0.72489508  0.42412056  0.52068441    -0.27800
F1901       F  0.69713324  0.36117093  0.50640330    -0.19900
H1902       H  0.69949921  0.36266695  0.55094659     0.15800
F1903       F  0.73295140  0.44348814  0.55724188    -0.23600
H1904       H  0.73234839  0.44123569  0.51239964     0.17600
C1905       C  0.14192502  0.31239932  0.86740767    -0.27700
C1906       C  0.16337060  0.31253520  0.85269024     0.05900
C1907       C  0.16859977  0.29058675  0.83919548     0.25500
C1908       C  0.15313612  0.26873064  0.84100894    -0.12200
C1909       C  0.13206213  0.26830712  0.85617498    -0.26100
C1910       C  0.12627240  0.29059770  0.86905705     0.36300
C1911       C  0.18207939  0.33400006  0.85378358     0.05900
F1912       F  0.18964187  0.28962498  0.82540596    -0.19900
H1913       H  0.15807346  0.25181527  0.83095047     0.15800
F1914       F  0.10647071  0.29082686  0.88429502    -0.23600
H1915       H  0.13776519  0.32897940  0.87817482     0.17500
C1916       C  0.19079631  0.34662382  0.83365093     0.25500
C1917       C  0.21140870  0.36389974  0.83489007    -0.12100
C1918       C  0.22366279  0.36847940  0.85614356    -0.26200
C1919       C  0.21395761  0.35703986  0.87636879     0.36500
C1920       C  0.19324084  0.34016173  0.87519682    -0.27800
F1921       F  0.17998247  0.34153882  0.81275270    -0.19900
H1922       H  0.21881088  0.37238059  0.81910471     0.15800
F1923       F  0.22538969  0.36127564  0.89716060    -0.23600
H1924       H  0.18688371  0.33068553  0.89089855     0.17600
C1925       C  0.26191891  0.49482880  0.77491646    -0.27700
C1926       C  0.26890477  0.48685758  0.75253600     0.05900
C1927       C  0.27854049  0.46184937  0.74930522     0.25500
C1928       C  0.28274862  0.44583203  0.76838864    -0.12200
C1929       C  0.27728062  0.45431336  0.79100517    -0.26100
C1930       C  0.26581966  0.47867403  0.79400677     0.36300
C1931       C  0.27030812  0.50580723  0.73343423     0.05900
F1932       F  0.28592107  0.45369371  0.72794633    -0.19900
H1933       H  0.29134869  0.42717819  0.76551787     0.15800
F1934       F  0.26021031  0.48775122  0.81549363    -0.23600
H1935       H  0.25458485  0.51409608  0.77772119     0.17500
C1936       C  0.25848454  0.50133402  0.71193972     0.25500
C1937       C  0.26393301  0.51724387  0.69298398    -0.12100
C1938       C  0.28143676  0.53769435  0.69511698    -0.26200
C1939       C  0.29190887  0.54305435  0.71711751     0.36500
C1940       C  0.28628003  0.52727388  0.73601404    -0.27800
F1941       F  0.24235632  0.48112344  0.70911412    -0.19900
H1942       H  0.25536493  0.51276897  0.67637074     0.15800
F1943       F  0.30852486  0.56280399  0.72026649    -0.23600
H1944       H  0.29558578  0.53100366  0.75245995     0.17600
C1945       C  0.31760414  0.34764801  0.75099837    -0.27700
C1946       C  0.31777873  0.32070575  0.75065449     0.05900
C1947       C  0.31382480  0.30712014  0.77148212     0.25500
C1948       C  0.31062332  0.32056284  0.79242081    -0.12200
C1949       C  0.31212281  0.34752422  0.79271369    -0.26100
C1950       C  0.31502800  0.36091576  0.77171866     0.36300
C1951       C  0.32663489  0.30797891  0.72919499     0.05900
F1952       F  0.31412703  0.28100894  0.77166940    -0.19900
H1953       H  0.30853813  0.30995839  0.80846948     0.15800
F1954       F  0.31663683  0.38695639  0.77129768    -0.23600
H1955       H  0.32127494  0.35855404  0.73534056     0.17500
C1956       C  0.31679696  0.31570072  0.70753740     0.25500
C1957       C  0.33087178  0.31129248  0.68733398    -0.12100
C1958       C  0.35474896  0.29918930  0.68861619    -0.26200
C1959       C  0.36332456  0.28908612  0.70975167     0.36500
C1960       C  0.34922779  0.29334293  0.72994929    -0.27800
F1961       F  0.29485083  0.32964956  0.70624790    -0.19900
H1962       H  0.32412379  0.31909556  0.67102129     0.15800
F1963       F  0.38621728  0.27678398  0.71106680    -0.23600
H1964       H  0.35728623  0.28743990  0.74641209     0.17600
C1965       C  0.14180452  0.31445447  0.14685084    -0.27700
C1966       C  0.15879091  0.31928465  0.12843119     0.05900
C1967       C  0.15960914  0.30210502  0.10963505     0.25500
C1968       C  0.14479532  0.27982548  0.10991817    -0.12200
C1969       C  0.12865908  0.27433575  0.12875414    -0.26100
C1970       C  0.12653594  0.29225740  0.14690742     0.36300
C1971       C  0.17826673  0.33984574  0.13020192     0.05900
F1972       F  0.17619490  0.30582860  0.09182167    -0.19900
H1973       H  0.14661554  0.26629852  0.09569462     0.15800
F1974       F  0.11120676  0.28742420  0.16539167    -0.23600
H1975       H  0.14110092  0.32741087  0.16156046     0.17500
C1976       C  0.18131434  0.35827895  0.11256255     0.25500
C1977       C  0.20267966  0.37452675  0.11252349    -0.12100
C1978       C  0.22152034  0.37220584  0.12976747    -0.26200
C1979       C  0.21775410  0.35466388  0.14800606     0.36500
C1980       C  0.19618801  0.33881598  0.14827715    -0.27800
F1981       F  0.16417230  0.35984559  0.09493999    -0.19900
H1982       H  0.20523200  0.38789455  0.09830699     0.15800
F1983       F  0.23529115  0.35234032  0.16523856    -0.23600
H1984       H  0.19422555  0.32466234  0.16194534     0.17600
C1985       C  0.30724625  0.38900041  0.96730655    -0.27700
C1986       C  0.28595967  0.40065054  0.97795661     0.05900
C1987       C  0.26670200  0.41125581  0.96382708     0.25500
C1988       C  0.26888160  0.41030672  0.93965342    -0.12200
C1989       C  0.29017130  0.39862802  0.92897683    -0.26100
C1990       C  0.30935093  0.38787834  0.94311508     0.36300
C1991       C  0.28434012  0.40217386  0.00371187     0.05900
F1992       F  0.24549400  0.42207496  0.97335752    -0.19900
H1993       H  0.25367510  0.41852955  0.92925862     0.15800
F1994       F  0.33045157  0.37681064  0.93364306    -0.23600
H1995       H  0.32255276  0.38110014  0.97777604     0.17500
C1996       C  0.28897017  0.38039765  0.01758841     0.25500
C1997       C  0.28856064  0.38234856  0.04180232    -0.12100
C1998       C  0.28347483  0.40600667  0.05279509    -0.26200
C1999       C  0.27828284  0.42769081  0.03884581     0.36500
C2000       C  0.27880747  0.42571958  0.01463106    -0.27800
F2001       F  0.29358534  0.35710922  0.00774151    -0.19900
H2002       H  0.29242842  0.36525684  0.05195610     0.15800
F2003       F  0.27286679  0.45091419  0.04847965    -0.23600
H2004       H  0.27537587  0.44282534  0.00436758     0.17600
C2005       C  0.25941475  0.49865164  0.21388259    -0.27700
C2006       C  0.25573077  0.48198073  0.23276436     0.05900
C2007       C  0.25394860  0.45532934  0.22858108     0.25500
C2008       C  0.25790397  0.44553652  0.20620683    -0.12200
C2009       C  0.26367887  0.46214551  0.18777573    -0.26100
C2010       C  0.26362013  0.48881600  0.19157847     0.36300
C2011       C  0.25829274  0.49220017  0.25673361     0.05900
F2012       F  0.24993164  0.43871501  0.24636669    -0.19900
H2013       H  0.25821001  0.42488440  0.20357753     0.15800
F2014       F  0.26934655  0.50520785  0.17402166    -0.23600
H2015       H  0.26101808  0.51919800  0.21671687     0.17500
C2016       C  0.27852499  0.48355908  0.27078495     0.25500
C2017       C  0.28403762  0.49596882  0.29166208    -0.12100
C2018       C  0.26942976  0.51710541  0.29919348    -0.26200
C2019       C  0.24828322  0.52494184  0.28584568     0.36500
C2020       C  0.24298385  0.51273887  0.26460958    -0.27800
F2021       F  0.29421436  0.46432096  0.26350610    -0.19900
H2022       H  0.30042375  0.48957191  0.30163370     0.15800
F2023       F  0.23391947  0.54545210  0.29246802    -0.23600
H2024       H  0.22746439  0.51983855  0.25393276     0.17600
C2025       C  0.37286782  0.31580190  0.25115636    -0.27700
C2026       C  0.34828439  0.32655130  0.25272999     0.05900
C2027       C  0.33599809  0.32744039  0.27440430     0.25500
C2028       C  0.34888909  0.31949684  0.29437428    -0.12200
C2029       C  0.37425867  0.31062791  0.29307718    -0.26100
C2030       C  0.38582471  0.30790014  0.27111848     0.36300
C2031       C  0.33688444  0.33926816  0.23223055     0.05900
F2032       F  0.31184249  0.33684185  0.27634449    -0.19900
H2033       H  0.33941085  0.32149137  0.31098779     0.15800
F2034       F  0.40993867  0.29841462  0.26895200    -0.23600
H2035       H  0.38257744  0.31478058  0.23457752     0.17500
C2036       C  0.32991061  0.36535772  0.23338139     0.25500
C2037       C  0.32157020  0.37820362  0.21357014    -0.12100
C2038       C  0.32029628  0.36549376  0.19206135    -0.26200
C2039       C  0.32664041  0.33913025  0.19102093     0.36500
C2040       C  0.33496644  0.32622669  0.21096978    -0.27800
F2041       F  0.33268002  0.37890546  0.25336613    -0.19900
H2042       H  0.31698275  0.39848536  0.21497484     0.15800
F2043       F  0.32588315  0.32605576  0.17065075    -0.23600
H2044       H  0.34044404  0.30615578  0.20974551     0.17600
C2045       C  0.65025358  0.17441143  0.84309115    -0.27700
C2046       C  0.66800209  0.17005899  0.86103933     0.05900
C2047       C  0.66858835  0.18718288  0.87989160     0.25500
C2048       C  0.65230240  0.20850350  0.88043371    -0.12200
C2049       C  0.63494132  0.21331274  0.86230065    -0.26100
C2050       C  0.63362695  0.19572912  0.84379082     0.36300
C2051       C  0.68740667  0.14915511  0.85931150     0.05900
F2052       F  0.68600423  0.18419113  0.89715056    -0.19900
H2053       H  0.65380581  0.22179842  0.89485463     0.15800
F2054       F  0.61746526  0.19996158  0.82578395    -0.23600
H2055       H  0.64966388  0.16155794  0.82830876     0.17500
C2056       C  0.69049871  0.13097927  0.87720471     0.25500
C2057       C  0.71103918  0.11356421  0.87677311    -0.12100
C2058       C  0.72916242  0.11436911  0.85879887    -0.26200
C2059       C  0.72551538  0.13192126  0.84048383     0.36500
C2060       C  0.70467573  0.14890996  0.84066117    -0.27800
F2061       F  0.67411603  0.13063928  0.89547122    -0.19900
H2062       H  0.71361970  0.10047221  0.89119614     0.15800
F2063       F  0.74256094  0.13318467  0.82274407    -0.23600
H2064       H  0.70275785  0.16281745  0.82678343     0.17600
C2065       C  0.66982982  0.28853760  0.76339230    -0.27700
C2066       C  0.68059166  0.31226242  0.75695188     0.05900
C2067       C  0.68124867  0.33240020  0.77328211     0.25500
C2068       C  0.66986770  0.32930936  0.79504118    -0.12200
C2069       C  0.65811634  0.30601888  0.80104618    -0.26100
C2070       C  0.65882249  0.28533708  0.78537288     0.36300
C2071       C  0.68691521  0.31758056  0.73234339     0.05900
F2072       F  0.69071063  0.35583607  0.76743617    -0.19900
H2073       H  0.66896054  0.34559091  0.80677179     0.15800
F2074       F  0.64677624  0.26292204  0.79049311    -0.23600
H2075       H  0.66878769  0.27295035  0.75094628     0.17500
C2076       C  0.71061118  0.32827773  0.72590080     0.25500
C2077       C  0.71397605  0.33853382  0.70363095    -0.12100
C2078       C  0.69367714  0.33848175  0.68773777    -0.26200
C2079       C  0.67070200  0.32614305  0.69358505     0.36500
C2080       C  0.66747779  0.31553380  0.71564109    -0.27800
F2081       F  0.72989924  0.33016181  0.74155448    -0.19900
H2082       H  0.73167510  0.34832399  0.69944859     0.15800
F2083       F  0.65078276  0.32596275  0.67847489    -0.23600
H2084       H  0.64905101  0.30749948  0.72026153     0.17600
C2085       C  0.54367636  0.27153317  0.74927777    -0.27700
C2086       C  0.51949683  0.26011638  0.75189988     0.05900
C2087       C  0.51262555  0.25014881  0.77369043     0.25500
C2088       C  0.52879166  0.25336368  0.79281798    -0.12200
C2089       C  0.55205175  0.26672909  0.79066004    -0.26100
C2090       C  0.55982296  0.27490576  0.76843635     0.36300
C2091       C  0.50074054  0.26099219  0.73251460     0.05900
F2092       F  0.48983053  0.23811027  0.77665732    -0.19900
H2093       H  0.52233938  0.24670212  0.80962061     0.15800
F2094       F  0.58252351  0.28711120  0.76534669    -0.23600
H2095       H  0.54947745  0.27913925  0.73260417     0.17500
C2096       C  0.47679999  0.27291716  0.73564460     0.25500
C2097       C  0.46016433  0.27619819  0.71688808    -0.12100
C2098       C  0.46696698  0.26780795  0.69450771    -0.26200
C2099       C  0.49060796  0.25505413  0.69154085     0.36500
C2100       C  0.50732755  0.25186765  0.71036435    -0.27800
F2101       F  0.47014297  0.28292049  0.75655711    -0.19900
H2102       H  0.44229115  0.28629295  0.71976615     0.15800
F2103       F  0.49825565  0.24687898  0.67027883    -0.23600
H2104       H  0.52572642  0.24275861  0.70754909     0.17600
C2105       C  0.47016779  0.31833425  0.87882244    -0.27700
C2106       C  0.46252689  0.33993733  0.86576730     0.05900
C2107       C  0.48074648  0.35182100  0.85136451     0.25500
C2108       C  0.50576784  0.34237778  0.85008398    -0.12200
C2109       C  0.51347955  0.32061616  0.86286613    -0.26100
C2110       C  0.49530533  0.30868183  0.87737981     0.36300
C2111       C  0.43560604  0.34980921  0.86658070     0.05900
F2112       F  0.47413938  0.37202005  0.83768853    -0.19900
H2113       H  0.51903380  0.35195211  0.83853436     0.15800
F2114       F  0.50155901  0.28742108  0.88980953    -0.23600
H2115       H  0.45662498  0.30886198  0.89016721     0.17500
C2116       C  0.41457499  0.33310527  0.86413947     0.25500
C2117       C  0.38960996  0.34294818  0.86281595    -0.12100
C2118       C  0.38496688  0.36964232  0.86355547    -0.26200
C2119       C  0.40588825  0.38628407  0.86676959     0.36500
C2120       C  0.43081145  0.37641394  0.86845444    -0.27800
F2121       F  0.41817906  0.30736994  0.86168751    -0.19900
H2122       H  0.37395313  0.32963738  0.86014941     0.15800
F2123       F  0.40235601  0.41213106  0.86804984    -0.23600
H2124       H  0.44652528  0.38971175  0.87084660     0.17600
C2125       C  0.65336083  0.18489085  0.15050781    -0.27700
C2126       C  0.65590420  0.16950551  0.13059006     0.05900
C2127       C  0.63896873  0.17363155  0.11190620     0.25500
C2128       C  0.62098888  0.19371856  0.11273397    -0.12200
C2129       C  0.61980400  0.21015772  0.13203210    -0.26100
C2130       C  0.63567189  0.20512294  0.15118780     0.36300
C2131       C  0.67779371  0.15114041  0.12883886     0.05900
F2132       F  0.64034435  0.15878989  0.09256375    -0.19900
H2133       H  0.60911821  0.19743034  0.09770494     0.15800
F2134       F  0.63475125  0.22046494  0.17023934    -0.23600
H2135       H  0.66611224  0.18217622  0.16510671     0.17500
C2136       C  0.69486827  0.15252187  0.11000286     0.25500
C2137       C  0.71727779  0.13783879  0.10990267    -0.12100
C2138       C  0.72332712  0.12144073  0.12848482    -0.26200
C2139       C  0.70593583  0.11924311  0.14696214     0.36500
C2140       C  0.68343365  0.13410061  0.14715324    -0.27800
F2141       F  0.69090434  0.16941968  0.09242093    -0.19900
H2142       H  0.73045993  0.13996045  0.09551921     0.15800
F2143       F  0.71148352  0.10414790  0.16548674    -0.23600
H2144       H  0.67072707  0.13287260  0.16195100     0.17600
C2145       C  0.40751748  0.35379511  0.09446730    -0.27700
C2146       C  0.42761015  0.36004052  0.10966247     0.05900
C2147       C  0.42304007  0.37820464  0.12732178     0.25500
C2148       C  0.39891642  0.38939221  0.12993847    -0.12200
C2149       C  0.37851273  0.38260752  0.11529199    -0.26100
C2150       C  0.38317084  0.36485952  0.09723524     0.36300
C2151       C  0.45295370  0.34694747  0.10807512     0.05900
F2152       F  0.44153270  0.38418261  0.14294387    -0.19900
H2153       H  0.39602824  0.40274723  0.14413373     0.15800
F2154       F  0.36415405  0.35766644  0.08259440    -0.23600
H2155       H  0.41059271  0.34008072  0.08059090     0.17500
C2156       C  0.45492678  0.31991113  0.10723980     0.25500
C2157       C  0.47875853  0.30783843  0.11003624    -0.12100
C2158       C  0.50101474  0.32244611  0.11376020    -0.26200
C2159       C  0.49921464  0.34951895  0.11269754     0.36500
C2160       C  0.47548756  0.36149465  0.10977861    -0.27800
F2161       F  0.43367257  0.30508023  0.10542473    -0.19900
H2162       H  0.47952810  0.28701924  0.11060271     0.15800
F2163       F  0.52018566  0.36460459  0.11546467    -0.23600
H2164       H  0.47459619  0.38232442  0.10978237     0.17600
C2165       C  0.61243898  0.28927094  0.97148056    -0.27700
C2166       C  0.59333969  0.27394834  0.98158051     0.05900
C2167       C  0.57597173  0.26108633  0.96699281     0.25500
C2168       C  0.57778118  0.26357680  0.94285758    -0.12200
C2169       C  0.59684679  0.27900915  0.93268304    -0.26100
C2170       C  0.61424066  0.29184894  0.94737292     0.36300
C2171       C  0.59115533  0.27236512  0.00728403     0.05900
F2172       F  0.55751907  0.24571860  0.97604538    -0.19900
H2173       H  0.56419298  0.25332619  0.93211644     0.15800
F2174       F  0.63312873  0.30684855  0.93857169    -0.23600
H2175       H  0.62581914  0.29964590  0.98234432     0.17500
C2176       C  0.61265011  0.26700019  0.02118780     0.25500
C2177       C  0.61069617  0.26749520  0.04541761    -0.12100
C2178       C  0.58724299  0.27303501  0.05630366    -0.26200
C2179       C  0.56558601  0.27770510  0.04234841     0.36500
C2180       C  0.56762810  0.27745573  0.01814885    -0.27800
F2181       F  0.63549094  0.26099115  0.01133962    -0.19900
H2182       H  0.62756652  0.26341406  0.05568761     0.15800
F2183       F  0.54256692  0.28339182  0.05201351    -0.23600
H2184       H  0.55087811  0.28194037  0.00785495     0.17600
C2185       C  0.66771973  0.31572528  0.27828185    -0.27700
C2186       C  0.67154963  0.32624331  0.25612779     0.05900
C2187       C  0.68490998  0.34956600  0.25395902     0.25500
C2188       C  0.69218224  0.36317911  0.27373461    -0.12200
C2189       C  0.68638557  0.35375216  0.29594469    -0.26100
C2190       C  0.67522200  0.32924194  0.29810157     0.36300
C2191       C  0.65738622  0.31574795  0.23607835     0.05900
F2192       F  0.68866356  0.36048030  0.23285289    -0.19900
H2193       H  0.70103655  0.38186911  0.27164407     0.15800
F2194       F  0.66945504  0.31935221  0.31924412    -0.23600
H2195       H  0.65745016  0.29776253  0.28024623     0.17500
C2196       C  0.66944926  0.31067416  0.21478395     0.25500
C2197       C  0.65477850  0.30493491  0.19515753    -0.12100
C2198       C  0.62788437  0.30428925  0.19646105    -0.26200
C2199       C  0.61602542  0.30808632  0.21816446     0.36500
C2200       C  0.63070169  0.31369382  0.23767453    -0.27800
F2201       F  0.69530612  0.31188602  0.21286344    -0.19900
H2202       H  0.66446063  0.30183402  0.17878124     0.15800
F2203       F  0.59017848  0.30758376  0.22050248    -0.23600
H2204       H  0.62103445  0.31776876  0.25389858     0.17600
C2205       C  0.48984244  0.26401465  0.21676853    -0.27700
C2206       C  0.50089504  0.24595656  0.23178177     0.05900
C2207       C  0.52236442  0.23182654  0.22427825     0.25500
C2208       C  0.53347076  0.23696201  0.20256844    -0.12200
C2209       C  0.52357901  0.25661352  0.18844180    -0.26100
C2210       C  0.50115867  0.26950955  0.19541743     0.36300
C2211       C  0.49209674  0.24538515  0.25619912     0.05900
F2212       F  0.53324714  0.21403321  0.23839960    -0.19900
H2213       H  0.55079575  0.22692270  0.19755943     0.15800
F2214       F  0.49091739  0.28840827  0.18205605    -0.23600
H2215       H  0.47338797  0.27516704  0.22228998     0.17500
C2216       C  0.50765159  0.25607920  0.27359546     0.25500
C2217       C  0.49736994  0.26188489  0.29538738    -0.12100
C2218       C  0.47168289  0.25644404  0.30035636    -0.26200
C2219       C  0.45659281  0.24405241  0.28358843     0.36500
C2220       C  0.46667342  0.23888759  0.26152874    -0.27800
F2221       F  0.53212154  0.26303468  0.26882984    -0.19900
H2222       H  0.50913059  0.27171330  0.30806670     0.15800
F2223       F  0.43153185  0.23909590  0.28786467    -0.23600
H2224       H  0.45430271  0.23104713  0.24822719     0.17600
C2225       C  0.84540006  0.69190162  0.84205352    -0.27700
C2226       C  0.84860262  0.67186575  0.85805096     0.05900
C2227       C  0.86937336  0.67268923  0.87349824     0.25500
C2228       C  0.88628853  0.69366507  0.87324809    -0.12200
C2229       C  0.88234969  0.71442313  0.85798491    -0.26100
C2230       C  0.86194734  0.71305249  0.84204730     0.36300
C2231       C  0.82797348  0.65256782  0.86068196     0.05900
F2232       F  0.87256573  0.65381309  0.88949485    -0.19900
H2233       H  0.90162280  0.69433643  0.88586040     0.15800
F2234       F  0.85749169  0.73251790  0.82688105    -0.23600
H2235       H  0.82927181  0.69172619  0.83025751     0.17500
C2236       C  0.80846145  0.65711869  0.87684439     0.25500
C2237       C  0.78690421  0.64133674  0.87741278    -0.12100
C2238       C  0.78425445  0.62052098  0.86194763    -0.26200
C2239       C  0.80448574  0.61507193  0.84653424     0.36500
C2240       C  0.82608069  0.63123038  0.84576730    -0.27800
F2241       F  0.80969805  0.67767042  0.89135706    -0.19900
H2242       H  0.77184663  0.64589993  0.88967089     0.15800
F2243       F  0.80282787  0.59509663  0.83144319    -0.23600
H2244       H  0.84096887  0.62755676  0.83311644     0.17600
C2245       C  0.68999149  0.67750270  0.71109889    -0.27700
C2246       C  0.67655539  0.67815722  0.73226388     0.05900
C2247       C  0.65046503  0.68472164  0.73220301     0.25500
C2248       C  0.63766049  0.68820422  0.71125788    -0.12200
C2249       C  0.65059198  0.68552635  0.69010155    -0.26100
C2250       C  0.67710665  0.68134119  0.69006070     0.36300
C2251       C  0.68787706  0.66689273  0.75348002     0.05900
F2252       F  0.63675804  0.68517326  0.75220872    -0.19900
H2253       H  0.61724686  0.69166914  0.71148072     0.15800
F2254       F  0.68999551  0.67861642  0.66976948    -0.23600
H2255       H  0.71008415  0.67236688  0.71082378     0.17500
C2256       C  0.69548513  0.64095327  0.75314022     0.25500
C2257       C  0.70015214  0.62798839  0.77382852    -0.12100
C2258       C  0.69753936  0.64058934  0.79521258    -0.26200
C2259       C  0.69192645  0.66701410  0.79563961     0.36500
C2260       C  0.68692353  0.68005599  0.77481583    -0.27800
F2261       F  0.69586635  0.62741236  0.73299142    -0.19900
H2262       H  0.70434212  0.60756024  0.77323625     0.15800
F2263       F  0.68896502  0.67953085  0.81613099    -0.23600
H2264       H  0.68088608  0.69999698  0.77540358     0.17600
C2265       C  0.72708826  0.45595640  0.73809288    -0.27700
C2266       C  0.74099486  0.47886392  0.73530095     0.05900
C2267       C  0.75187165  0.48428860  0.71354335     0.25500
C2268       C  0.74712022  0.46816112  0.69458734    -0.12200
C2269       C  0.73144902  0.44631986  0.69693391    -0.26100
C2270       C  0.72233806  0.43978924  0.71917497     0.36300
C2271       C  0.74173029  0.49791186  0.75454265     0.05900
F2272       F  0.76645855  0.50559835  0.71044551    -0.19900
H2273       H  0.75471581  0.47353127  0.67780087     0.15800
F2274       F  0.70790200  0.41841134  0.72254562    -0.23600
H2275       H  0.71868707  0.45124912  0.75473075     0.17500
C2276       C  0.73307094  0.52327821  0.75100764     0.25500
C2277       C  0.72963490  0.53989594  0.76984786    -0.12100
C2278       C  0.73473889  0.53166502  0.79259639    -0.26200
C2279       C  0.74475207  0.50674997  0.79599729     0.36500
C2280       C  0.74807593  0.49006860  0.77712845    -0.27800
F2281       F  0.72592756  0.53138792  0.72959135    -0.19900
H2282       H  0.72174190  0.55887052  0.76672735     0.15800
F2283       F  0.74940805  0.49772990  0.81767157    -0.23600
H2284       H  0.75465403  0.47059882  0.78026314     0.17600
C2285       C  0.67211336  0.46229840  0.88837315    -0.27700
C2286       C  0.65447749  0.45195128  0.87252551     0.05900
C2287       C  0.64735132  0.46651349  0.85309328     0.25500
C2288       C  0.65775786  0.49085181  0.84950928    -0.12200
C2289       C  0.67567884  0.50128991  0.86510253    -0.26100
C2290       C  0.68263479  0.48680634  0.88477677     0.36300
C2291       C  0.64468436  0.42538104  0.87510432     0.05900
F2292       F  0.63118664  0.45668237  0.83693596    -0.19900
H2293       H  0.65214671  0.50127521  0.83406585     0.15800
F2294       F  0.69969409  0.49611925  0.90039283    -0.23600
H2295       H  0.67787277  0.45127549  0.90342988     0.17500
C2296       C  0.66170540  0.40446915  0.87551791     0.25500
C2297       C  0.65243007  0.37934999  0.87373242    -0.12100
C2298       C  0.62604441  0.37458536  0.87132210    -0.26200
C2299       C  0.60891416  0.39547413  0.87246019     0.36500
C2300       C  0.61823243  0.42063104  0.87432044    -0.27800
F2301       F  0.68738343  0.40838381  0.87582073    -0.19900
H2302       H  0.66611762  0.36369855  0.87291481     0.15800
F2303       F  0.58326855  0.39172542  0.87103128    -0.23600
H2304       H  0.60482149  0.43655092  0.87423963     0.17600
C2305       C  0.84526131  0.68370832  0.11218966    -0.27700
C2306       C  0.84438971  0.66846347  0.13226344     0.05900
C2307       C  0.86044566  0.67502240  0.15102565     0.25500
C2308       C  0.87599281  0.69712329  0.15002130    -0.12200
C2309       C  0.87543108  0.71326264  0.13048442    -0.26100
C2310       C  0.86039688  0.70591190  0.11132839     0.36300
C2311       C  0.82479118  0.64760831  0.13402630     0.05900
F2312       F  0.86066231  0.66037220  0.17049420    -0.19900
H2313       H  0.88749057  0.70229726  0.16492706     0.15800
F2314       F  0.85997195  0.72054332  0.09183364    -0.23600
H2315       H  0.83319369  0.67910209  0.09749807     0.17500
C2316       C  0.80596715  0.64854740  0.15146455     0.25500
C2317       C  0.78491562  0.63188663  0.15078089    -0.12100
C2318       C  0.78225549  0.61358833  0.13296355    -0.26200
C2319       C  0.80182012  0.61154176  0.11626895     0.36500
C2320       C  0.82270084  0.62861585  0.11667800    -0.27800
F2321       F  0.80686420  0.66689286  0.16820963    -0.19900
H2322       H  0.77008059  0.63395087  0.16378490     0.15800
F2323       F  0.79979362  0.59442843  0.09857277    -0.23600
H2324       H  0.83683325  0.62760865  0.10296212     0.17600
C2325       C  0.63370988  0.46566098  0.11213286    -0.27700
C2326       C  0.64848044  0.44322857  0.11460483     0.05900
C2327       C  0.67518951  0.44559238  0.11690844     0.25500
C2328       C  0.68663327  0.46996052  0.11768120    -0.12200
C2329       C  0.67170352  0.49246049  0.11638232    -0.26100
C2330       C  0.64508145  0.49000636  0.11306293     0.36300
C2331       C  0.63578179  0.41765539  0.11618358     0.05900
F2332       F  0.69006454  0.42441580  0.11989541    -0.19900
H2333       H  0.70707368  0.47119675  0.12055268     0.15800
F2334       F  0.62985668  0.51111348  0.11133150    -0.23600
H2335       H  0.61316556  0.46432639  0.10997819     0.17500
C2336       C  0.61563834  0.41366412  0.13195802     0.25500
C2337       C  0.60458936  0.38933040  0.13430281    -0.12100
C2338       C  0.61332935  0.36829224  0.12108087    -0.26200
C2339       C  0.63311944  0.37241982  0.10488708     0.36500
C2340       C  0.64418718  0.39686341  0.10253677    -0.27800
F2341       F  0.60737198  0.43302102  0.14592299    -0.19900
H2342       H  0.58952018  0.38686229  0.14700630     0.15800
F2343       F  0.64234341  0.35277555  0.09178938    -0.23600
H2344       H  0.65953340  0.39952495  0.09014489     0.17600
C2345       C  0.72191386  0.55826729  0.01727524    -0.27700
C2346       C  0.71754727  0.58179452  0.00591334     0.05900
C2347       C  0.71409061  0.60410127  0.01943774     0.25500
C2348       C  0.71487175  0.60276618  0.04368830    -0.12200
C2349       C  0.71914127  0.57921507  0.05511145    -0.26100
C2350       C  0.72278006  0.55690642  0.04152741     0.36300
C2351       C  0.71655202  0.58289483  0.98006588     0.05900
F2352       F  0.71044675  0.62734569  0.00922552    -0.19900
H2353       H  0.71203592  0.62029543  0.05353811     0.15800
F2354       F  0.72699645  0.53366050  0.05155764    -0.23600
H2355       H  0.72431578  0.54073948  0.00733047     0.17500
C2356       C  0.73551532  0.57091337  0.96646543     0.25500
C2357       C  0.73440414  0.57206770  0.94223848    -0.12100
C2358       C  0.71451024  0.58532004  0.93089834    -0.26200
C2359       C  0.69544087  0.59719841  0.94450686     0.36500
C2360       C  0.69648288  0.59589195  0.96877513    -0.27800
F2361       F  0.75558838  0.55868766  0.97657253    -0.19900
H2362       H  0.74946178  0.56283674  0.93233971     0.15800
F2363       F  0.67560585  0.60985694  0.93445670    -0.23600
H2364       H  0.68137851  0.60488186  0.97879006     0.17600
C2365       C  0.67964241  0.62766958  0.23516077    -0.27700
C2366       C  0.66991344  0.65264566  0.23252430     0.05900
C2367       C  0.66953151  0.66394378  0.21041673     0.25500
C2368       C  0.67737386  0.64976881  0.19105411    -0.12200
C2369       C  0.68535607  0.62404655  0.19345746    -0.26100
C2370       C  0.68720919  0.61337904  0.21584946     0.36300
C2371       C  0.65712986  0.66499921  0.25244529     0.05900
F2372       F  0.66062500  0.68827912  0.20748232    -0.19900
H2373       H  0.67589628  0.65849539  0.17405657     0.15800
F2374       F  0.69537738  0.58882312  0.21908304    -0.23600
H2375       H  0.67998947  0.61867020  0.25210152     0.17500
C2376       C  0.63074199  0.66993312  0.25152069     0.25500
C2377       C  0.61748928  0.67667356  0.27160046    -0.12100
C2378       C  0.63022834  0.67851271  0.29302395    -0.26200
C2379       C  0.65700575  0.67530291  0.29359600     0.36500
C2380       C  0.67024796  0.66835282  0.27344573    -0.27800
F2381       F  0.61740095  0.66621305  0.23160115    -0.19900
H2382       H  0.59695346  0.67925234  0.27049600     0.15800
F2383       F  0.67026889  0.67767301  0.31370824    -0.23600
H2384       H  0.69061771  0.66460156  0.27438451     0.17600
C2385       C  0.74690961  0.45308374  0.25641638    -0.27700
C2386       C  0.74525969  0.47997245  0.25396036     0.05900
C2387       C  0.74089724  0.49516584  0.27381447     0.25500
C2388       C  0.73663858  0.48349268  0.29532945    -0.12200
C2389       C  0.73683715  0.45663427  0.29738024    -0.26100
C2390       C  0.74270397  0.44146650  0.27796696     0.36300
C2391       C  0.74344999  0.49152256  0.23046717     0.05900
F2392       F  0.73819721  0.52107127  0.27203234    -0.19900
H2393       H  0.73145684  0.49533909  0.31008269     0.15800
F2394       F  0.74234404  0.41539629  0.27949608    -0.23600
H2395       H  0.74999655  0.44101594  0.24134265     0.17500
C2396       C  0.75809569  0.51306317  0.22387361     0.25500
C2397       C  0.75312814  0.52569640  0.20280464    -0.12100
C2398       C  0.73327159  0.51719970  0.18832822    -0.26200
C2399       C  0.71960697  0.49489429  0.19442279     0.36500
C2400       C  0.72478539  0.48216911  0.21517176    -0.27800
F2401       F  0.77666085  0.52224900  0.23807007    -0.19900
H2402       H  0.76377980  0.54288860  0.19843955     0.15800
F2403       F  0.70056195  0.48587441  0.18062156    -0.23600
H2404       H  0.71321303  0.46569274  0.21987308     0.17600
C2405       C  0.36366449  0.81040461  0.84173887    -0.27700
C2406       C  0.34577526  0.81606804  0.85921187     0.05900
C2407       C  0.34483728  0.80056896  0.87909503     0.25500
C2408       C  0.36082804  0.77915061  0.88103757    -0.12200
C2409       C  0.37824491  0.77287480  0.86331675    -0.26100
C2410       C  0.38006442  0.78909333  0.84386502     0.36300
C2411       C  0.32601091  0.83608506  0.85582404     0.05900
F2412       F  0.32730264  0.80524028  0.89597730    -0.19900
H2413       H  0.35899163  0.76688844  0.89613473     0.15800
F2414       F  0.39632016  0.78333739  0.82624651    -0.23600
H2415       H  0.36435189  0.82203136  0.82617321     0.17500
C2416       C  0.32550051  0.85832126  0.86969548     0.25500
C2417       C  0.30412316  0.87464739  0.86936412    -0.12100
C2418       C  0.28275185  0.86863972  0.85560983    -0.26200
C2419       C  0.28394766  0.84704113  0.84083335     0.36500
C2420       C  0.30547996  0.83105327  0.84089357    -0.27800
F2421       F  0.34513967  0.86351499  0.88434504    -0.19900
H2422       H  0.30362182  0.89104459  0.88096556     0.15800
F2423       F  0.26387701  0.84075878  0.82700576    -0.23600
H2424       H  0.30552404  0.81387397  0.83023089     0.17600
C2425       C  0.50237614  0.73095271  0.77655282    -0.27700
C2426       C  0.49271939  0.72584193  0.75427109     0.05900
C2427       C  0.46683883  0.71879790  0.75198474     0.25500
C2428       C  0.45146592  0.71569324  0.77169233    -0.12200
C2429       C  0.46150529  0.71957108  0.79403764    -0.26100
C2430       C  0.48701789  0.72790461  0.79624661     0.36300
C2431       C  0.51056417  0.72444296  0.73415799     0.05900
F2432       F  0.45691609  0.71289827  0.73090368    -0.19900
H2433       H  0.43196390  0.70907389  0.76952231     0.15800
F2434       F  0.49781386  0.73107126  0.81746572    -0.23600
H2435       H  0.52226598  0.73624994  0.77877509     0.17500
C2436       C  0.50525949  0.73648212  0.71281336     0.25500
C2437       C  0.52154658  0.73276770  0.69368906    -0.12100
C2438       C  0.54330478  0.71687887  0.69546017    -0.26200
C2439       C  0.54893894  0.70564874  0.71715835     0.36500
C2440       C  0.53282247  0.70950618  0.73613753    -0.27800
F2441       F  0.48427160  0.75165078  0.71039463    -0.19900
H2442       H  0.51660786  0.74158884  0.67728013     0.15800
F2443       F  0.56952429  0.69003403  0.72001422    -0.23600
H2444       H  0.53727578  0.69987883  0.75230190     0.17600
C2445       C  0.34732177  0.69712776  0.76160675    -0.27700
C2446       C  0.33160774  0.67571580  0.75738392     0.05900
C2447       C  0.32483575  0.65963936  0.77602701     0.25500
C2448       C  0.33540757  0.66379680  0.79803749    -0.12200
C2449       C  0.35248075  0.68418524  0.80175954    -0.26100
C2450       C  0.35770787  0.70135716  0.78362291     0.36300
C2451       C  0.32743420  0.66709782  0.73317749     0.05900
F2452       F  0.31032655  0.63836594  0.77240982    -0.19900
H2453       H  0.33180413  0.64999252  0.81172539     0.15800
F2454       F  0.37494923  0.72059628  0.78659564    -0.23600
H2455       H  0.35308891  0.70945113  0.74739585     0.17500
C2456       C  0.30287769  0.66283268  0.72391751     0.25500
C2457       C  0.30014570  0.65168837  0.70181269    -0.12100
C2458       C  0.32187457  0.64423364  0.68906701    -0.26200
C2459       C  0.34630162  0.64946514  0.69808769     0.36500
C2460       C  0.34897502  0.66093682  0.71977826    -0.27800
F2461       F  0.28169834  0.66879729  0.73645627    -0.19900
H2462       H  0.28117354  0.64751413  0.69527389     0.15800
F2463       F  0.36770594  0.64255739  0.68623766    -0.23600
H2464       H  0.36804073  0.66389527  0.72665323     0.17600
C2465       C  0.53740314  0.66082778  0.88315476    -0.27700
C2466       C  0.54528729  0.64092507  0.86812898     0.05900
C2467       C  0.52749273  0.63107975  0.85214151     0.25500
C2468       C  0.50277660  0.64113916  0.85097617    -0.12200
C2469       C  0.49503790  0.66160587  0.86536885    -0.26100
C2470       C  0.51260476  0.67121693  0.88175271     0.36300
C2471       C  0.57220481  0.63121910  0.86819896     0.05900
F2472       F  0.53430161  0.61258225  0.83668041    -0.19900
H2473       H  0.48989309  0.63329014  0.83808863     0.15800
F2474       F  0.50616477  0.69100770  0.89599320    -0.23600
H2475       H  0.55056476  0.66856640  0.89585596     0.17500
C2476       C  0.59302209  0.64837852  0.86830972     0.25500
C2477       C  0.61807296  0.63915393  0.86606553    -0.12100
C2478       C  0.62304689  0.61269919  0.86326029    -0.26200
C2479       C  0.60230963  0.59546004  0.86372631     0.36500
C2480       C  0.57727036  0.60465550  0.86646763    -0.27800
F2481       F  0.58917598  0.67420001  0.86926513    -0.19900
H2482       H  0.63357329  0.65295719  0.86559342     0.15800
F2483       F  0.60609816  0.56975420  0.86125971    -0.23600
H2484       H  0.56170468  0.59093248  0.86681271     0.17600
C2485       C  0.36808354  0.51565183  0.85846078    -0.27700
C2486       C  0.35566837  0.53330462  0.87302817     0.05900
C2487       C  0.33351388  0.52540504  0.88500822     0.25500
C2488       C  0.32357914  0.50062187  0.88167482    -0.12200
C2489       C  0.33554157  0.48331176  0.86637042    -0.26100
C2490       C  0.35837854  0.49095706  0.85525585     0.36300
C2491       C  0.36483319  0.56035280  0.87382234     0.05900
F2492       F  0.32127438  0.54174273  0.89967931    -0.19900
H2493       H  0.30608974  0.49528475  0.89051599     0.15800
F2494       F  0.37109558  0.47492442  0.84062387    -0.23600
H2495       H  0.38487247  0.52129505  0.84870557     0.17500
C2496       C  0.39112859  0.56610737  0.87541256     0.25500
C2497       C  0.39969649  0.59144250  0.87282959    -0.12100
C2498       C  0.38223513  0.61153446  0.86898758    -0.26200
C2499       C  0.35588040  0.60591085  0.86828680     0.36500
C2500       C  0.34737902  0.58058266  0.87054894    -0.27800
F2501       F  0.40858814  0.54719780  0.87916905    -0.19900
H2502       H  0.42004108  0.59531592  0.87355830     0.15800
F2503       F  0.33834327  0.62461981  0.86399575    -0.23600
H2504       H  0.32714026  0.57667010  0.86865640     0.17600
C2505       C  0.34254123  0.79583504  0.15176965    -0.27700
C2506       C  0.34692016  0.81665507  0.13685640     0.05900
C2507       C  0.36883177  0.81643306  0.12263746     0.25500
C2508       C  0.38519119  0.79496996  0.12245636    -0.12200
C2509       C  0.37968567  0.77332662  0.13618020    -0.26100
C2510       C  0.35860565  0.77434607  0.15141507     0.36300
C2511       C  0.32679885  0.83666823  0.13450447     0.05900
F2512       F  0.37390666  0.83658649  0.10841218    -0.19900
H2513       H  0.40132628  0.79470730  0.11066350     0.15800
F2514       F  0.35295009  0.75416642  0.16545107    -0.23600
H2515       H  0.32578820  0.79560446  0.16284428     0.17500
C2516       C  0.31413703  0.83990609  0.11319655     0.25500
C2517       C  0.29190153  0.85480682  0.11193361    -0.12100
C2518       C  0.28215394  0.86714454  0.13171865    -0.26200
C2519       C  0.29552707  0.86517990  0.15275717     0.36500
C2520       C  0.31754600  0.84977779  0.15416481    -0.27800
F2521       F  0.32211466  0.82707226  0.09398685    -0.19900
H2522       H  0.28174485  0.85604529  0.09559329     0.15800
F2523       F  0.28623685  0.87648947  0.17225104    -0.23600
H2524       H  0.32685158  0.84726456  0.17078918     0.17600
C2525       C  0.52836021  0.62911513  0.10784836    -0.27700
C2526       C  0.55078054  0.64354580  0.11100465     0.05900
C2527       C  0.54861232  0.66996994  0.11607311     0.25500
C2528       C  0.52445283  0.68117579  0.11945006    -0.12200
C2529       C  0.50208550  0.66622708  0.11796760    -0.26100
C2530       C  0.50428484  0.64021327  0.11134765     0.36300
C2531       C  0.57601555  0.63027620  0.11168820     0.05900
F2532       F  0.56983961  0.68453444  0.11939187    -0.19900
H2533       H  0.52335175  0.70124350  0.12445080     0.15800
F2534       F  0.48321116  0.62522643  0.10886309    -0.23600
H2535       H  0.52954949  0.60886237  0.10349953     0.17500
C2536       C  0.57948139  0.60893146  0.12632964     0.25500
C2537       C  0.60354630  0.59760364  0.12871837    -0.12100
C2538       C  0.62488584  0.60724035  0.11669203    -0.26200
C2539       C  0.62127083  0.62797993  0.10125841     0.36500
C2540       C  0.59703498  0.63941885  0.09890194    -0.27800
F2541       F  0.55986711  0.59986534  0.13941505    -0.19900
H2542       H  0.60559053  0.58170416  0.14071494     0.15800
F2543       F  0.64122985  0.63788476  0.08914957    -0.23600
H2544       H  0.59475257  0.65570103  0.08737042     0.17600
C2545       C  0.35666254  0.59010080  0.09547787    -0.27700
C2546       C  0.36515109  0.56825838  0.10757975     0.05900
C2547       C  0.38638527  0.57051739  0.12241029     0.25500
C2548       C  0.39811499  0.59434292  0.12581309    -0.12200
C2549       C  0.38901069  0.61652332  0.11455287    -0.26100
C2550       C  0.36852406  0.61402153  0.09877425     0.36300
C2551       C  0.35118080  0.54344445  0.10600937     0.05900
F2552       F  0.39487389  0.54995983  0.13473960    -0.19900
H2553       H  0.41379628  0.59555947  0.13803651     0.15800
F2554       F  0.35914180  0.63479850  0.08731633    -0.23600
H2555       H  0.34049103  0.58871501  0.08380761     0.17500
C2556       C  0.32494390  0.54195457  0.11142258     0.25500
C2557       C  0.31306684  0.51793080  0.11388399    -0.12100
C2558       C  0.32719258  0.49508445  0.11115537    -0.26200
C2559       C  0.35294488  0.49668716  0.10411743     0.36500
C2560       C  0.36472454  0.52063248  0.10154247    -0.27800
F2561       F  0.31129531  0.56360214  0.11608255    -0.19900
H2562       H  0.29325747  0.51721967  0.11938175     0.15800
F2563       F  0.36703239  0.47507794  0.10049456    -0.23600
H2564       H  0.38481177  0.52136137  0.09694615     0.17600
C2565       C  0.44166037  0.70549063  0.02117889    -0.27700
C2566       C  0.41844347  0.70736834  0.00902299     0.05900
C2567       C  0.39569713  0.71142602  0.02152284     0.25500
C2568       C  0.39616019  0.71321960  0.04567970    -0.12200
C2569       C  0.41928758  0.71109768  0.05796117    -0.26100
C2570       C  0.44216793  0.70730817  0.04541765     0.36300
C2571       C  0.41786048  0.70510366  0.98336486     0.05900
F2572       F  0.37300834  0.71408134  0.01032849    -0.19900
H2573       H  0.37828016  0.71624485  0.05479630     0.15800
F2574       F  0.46491792  0.70456496  0.05651217    -0.23600
H2575       H  0.45937844  0.70214262  0.01189306     0.17500
C2576       C  0.43339208  0.72076995  0.96938890     0.25500
C2577       C  0.43150380  0.71953937  0.94520860    -0.12100
C2578       C  0.41417099  0.70261783  0.93441543    -0.26200
C2579       C  0.39913616  0.68640428  0.94850575     0.36500
C2580       C  0.40101165  0.68773046  0.97268125    -0.27800
F2581       F  0.44969408  0.73798498  0.97911298    -0.19900
H2582       H  0.44340133  0.73220999  0.93493464     0.15800
F2583       F  0.38241230  0.66940916  0.93906449    -0.23600
H2584       H  0.38913847  0.67521303  0.98314174     0.17600
C2585       C  0.52626671  0.74269541  0.26054774    -0.27700
C2586       C  0.49942132  0.74248588  0.26203067     0.05900
C2587       C  0.48776747  0.73975468  0.28391742     0.25500
C2588       C  0.50273475  0.73508273  0.30353721    -0.12200
C2589       C  0.52939039  0.73332458  0.30159551    -0.26100
C2590       C  0.54119511  0.73796822  0.28019410     0.36300
C2591       C  0.48429608  0.73924461  0.24053019     0.05900
F2592       F  0.46188686  0.73970813  0.28600419    -0.19900
H2593       H  0.49345200  0.73116014  0.31996739     0.15800
F2594       F  0.56694990  0.73563172  0.27792540    -0.23600
H2595       H  0.53562534  0.74421998  0.24384297     0.17500
C2596       C  0.48771465  0.75530797  0.22111887     0.25500
C2597       C  0.47696606  0.74858999  0.19964142    -0.12100
C2598       C  0.46334144  0.72546361  0.19723361    -0.26200
C2599       C  0.45897217  0.71017837  0.21697000     0.36500
C2600       C  0.46915133  0.71715015  0.23833541    -0.27800
F2601       F  0.50214719  0.77691746  0.22277717    -0.19900
H2602       H  0.48042909  0.76069287  0.18468835     0.15800
F2603       F  0.44563037  0.68786534  0.21549935    -0.23600
H2604       H  0.46656167  0.70425918  0.25290493     0.17600
C2605       C  0.32001584  0.62371584  0.25110676    -0.27700
C2606       C  0.32667008  0.64977076  0.25280226     0.05900
C2607       C  0.32506304  0.66218836  0.27440571     0.25500
C2608       C  0.31897001  0.64812231  0.29428490    -0.12200
C2609       C  0.31451162  0.62148540  0.29289514    -0.26100
C2610       C  0.31399727  0.60961065  0.27092325     0.36300
C2611       C  0.33916085  0.66223509  0.23279934     0.05900
F2612       F  0.33061494  0.68760607  0.27641363    -0.19900
H2613       H  0.31906111  0.65785260  0.31090020     0.15800
F2614       F  0.30883857  0.58413610  0.26859400    -0.23600
H2615       H  0.32112366  0.61383682  0.23458399     0.17500
C2616       C  0.36441312  0.67109506  0.23499730     0.25500
C2617       C  0.37835174  0.67783052  0.21536959    -0.12100
C2618       C  0.36761326  0.67570679  0.19313927    -0.26200
C2619       C  0.34173913  0.66851424  0.19103246     0.36500
C2620       C  0.32773221  0.66162603  0.21077210    -0.27800
F2621       F  0.37636788  0.67114867  0.25589879    -0.19900
H2622       H  0.39807711  0.68371517  0.21756963     0.15800
F2623       F  0.33045660  0.66656835  0.16991593    -0.23600
H2624       H  0.30828942  0.65472102  0.20879153     0.17600
loop_ 
_geom_bond_atom_site_label_1 
_geom_bond_atom_site_label_2 
_geom_bond_distance 
_geom_bond_site_symmetry_2 
_ccdc_geom_bond_type 
O1           C16   1.263       .  A
O1           Al9   1.895       .  S
C2           O12   1.260       .  A
C2            O3   1.265       .  A
C2         C2618   1.478       .  S
O3           Al5   1.928       .  S
O4            C6   1.255       .  A
O4           Al5   1.877       .  S
Al5          O13   1.898       .  S
Al5          O15   1.922       .  S
Al5          O14   1.778       .  S
C6           O19   1.265       .  A
C6         C2509   1.483       .  S
O7           C17   1.264       .  A
O7           Al9   1.912       .  S
O8           C21   1.261       .  A
O8          Al18   1.892       .  S
Al9          O22   1.943       .  S
Al9          O19   1.941       .  S
Al9          O14   1.789       .  S
O10          C17   1.263       .  A
O10         Al18   1.908       .  S
O11          C20   1.261       .  A
O11         Al18   1.912       .  S
O12         Al18   1.880       .  S
O13          C20   1.258       .  A
O14         Al18   1.772       .  S
O15          C16   1.268       .  A
C16        C2569   1.483       .  S
C17        C2598   1.477       .  S
C20        C2549   1.486       .  S
C21          O22   1.268       .  A
C21        C2529   1.486       .  S
O23          C38   1.264       .  A
O23         Al31   1.916       .  S
C24          O34   1.264       .  A
C24          O25   1.263       .  A
C24        C2449   1.467       .  S
O25         Al27   1.914       .  S
O26          C28   1.260       .  A
O26         Al27   1.893       .  S
Al27         O35   1.903       .  S
Al27         O37   1.900       .  S
Al27         O36   1.775       .  S
C28          O41   1.265       .  A
C28        C2429   1.483       .  S
O29          C39   1.263       .  A
O29         Al31   1.923       .  S
O30          C43   1.265       .  A
O30         Al40   1.899       .  S
Al31         O44   1.932       .  S
Al31         O41   1.927       .  S
Al31         O36   1.784       .  S
O32          C39   1.259       .  A
O32         Al40   1.902       .  S
O33          C42   1.260       .  A
O33         Al40   1.911       .  S
O34         Al40   1.914       .  S
O35          C42   1.260       .  A
O36         Al40   1.784       .  S
O37          C38   1.262       .  A
C38        C2469   1.489       .  S
C39        C2409   1.479       .  S
C42        C2498   1.478       .  S
C43          O44   1.270       .  A
C43        C2578   1.488       .  S
O45          C60   1.263       .  A
O45         Al53   1.899       .  S
C46          O56   1.261       .  A
C46          O47   1.267       .  A
C46        C2369   1.478       .  S
O47         Al49   1.928       .  S
O48          C50   1.257       .  A
O48         Al49   1.888       .  S
Al49         O57   1.908       .  S
Al49         O59   1.927       .  S
Al49         O58   1.781       .  S
C50          O63   1.267       .  A
C50        C2318   1.489       .  S
O51          C61   1.265       .  A
O51         Al53   1.926       .  S
O52          C65   1.262       .  A
O52         Al62   1.889       .  S
Al53         O66   1.953       .  S
Al53         O63   1.951       .  S
Al53         O58   1.785       .  S
O54          C61   1.261       .  A
O54         Al62   1.906       .  S
O55          C64   1.260       .  A
O55         Al62   1.907       .  S
O56         Al62   1.884       .  S
O57          C64   1.259       .  A
O58         Al62   1.776       .  S
O59          C60   1.268       .  A
C60        C2349   1.491       .  S
C61        C2398   1.476       .  S
C64        C2538   1.487       .  S
C65          O66   1.272       .  A
C65        C2329   1.487       .  S
O67          C82   1.263       .  A
O67         Al75   1.912       .  S
C68          O78   1.265       .  A
C68          O69   1.263       .  A
C68        C2258   1.470       .  S
O69         Al71   1.897       .  S
O70          C72   1.258       .  A
O70         Al71   1.890       .  S
Al71         O79   1.907       .  S
Al71         O81   1.894       .  S
Al71         O80   1.779       .  S
C72          O85   1.263       .  A
C72        C2278   1.484       .  S
O73          C83   1.265       .  A
O73         Al75   1.930       .  S
O74          C87   1.266       .  A
O74         Al84   1.907       .  S
Al75         O88   1.927       .  S
Al75         O85   1.927       .  S
Al75         O80   1.789       .  S
O76          C83   1.260       .  A
O76         Al84   1.901       .  S
O77          C86   1.259       .  A
O77         Al84   1.911       .  S
O78         Al84   1.914       .  S
O79          C86   1.259       .  A
O80         Al84   1.787       .  S
O81          C82   1.261       .  A
C82        C2289   1.485       .  S
C83        C2238   1.488       .  S
C86        C2478   1.487       .  S
C87          O88   1.268       .  A
C87        C2358   1.490       .  S
O89         C104   1.261       .  A
O89         Al97   1.891       .  S
C90         O100   1.262       .  A
C90          O91   1.268       .  A
C90        C2198   1.481       .  S
O91         Al93   1.931       .  S
O92          C94   1.256       .  A
O92         Al93   1.881       .  S
Al93        O101   1.908       .  S
Al93        O103   1.933       .  S
Al93        O102   1.778       .  S
C94         O107   1.266       .  A
C94        C2129   1.479       .  S
O95         C105   1.263       .  A
O95         Al97   1.924       .  S
O96         C109   1.261       .  A
O96        Al106   1.882       .  S
Al97        O110   1.954       .  S
Al97        O107   1.945       .  S
Al97        O102   1.784       .  S
O98         C105   1.261       .  A
O98        Al106   1.912       .  S
O99         C108   1.261       .  A
O99        Al106   1.911       .  S
O100       Al106   1.883       .  S
O101        C108   1.260       .  A
O102       Al106   1.774       .  S
O103        C104   1.268       .  A
C104       C2178   1.486       .  S
C105       C2209   1.478       .  S
C108       C2338   1.488       .  S
C109        O110   1.272       .  A
C109       C2158   1.487       .  S
O111        C126   1.264       .  A
O111       Al119   1.924       .  S
C112        O122   1.264       .  A
C112        O113   1.264       .  A
C112       C2069   1.470       .  S
O113       Al115   1.918       .  S
O114        C116   1.261       .  A
O114       Al115   1.895       .  S
Al115       O123   1.908       .  S
Al115       O125   1.900       .  S
Al115       O124   1.781       .  S
C116        O129   1.266       .  A
C116       C2089   1.486       .  S
O117        C127   1.263       .  A
O117       Al119   1.934       .  S
O118        C131   1.266       .  A
O118       Al128   1.898       .  S
Al119       O132   1.936       .  S
Al119       O129   1.924       .  S
Al119       O124   1.785       .  S
O120        C127   1.255       .  A
O120       Al128   1.891       .  S
O121        C130   1.260       .  A
O121       Al128   1.910       .  S
O122       Al128   1.915       .  S
O123        C130   1.261       .  A
O124       Al128   1.785       .  S
O125        C126   1.260       .  A
C126       C2109   1.495       .  S
C127       C2049   1.484       .  S
C130       C2298   1.483       .  S
C131        O132   1.271       .  A
C131       C2169   1.490       .  S
O133        C148   1.264       .  A
O133       Al141   1.896       .  S
C134        O144   1.260       .  A
C134        O135   1.267       .  A
C134       C2038   1.483       .  S
O135       Al137   1.934       .  S
O136        C138   1.258       .  A
O136       Al137   1.890       .  S
Al137       O145   1.904       .  S
Al137       O147   1.933       .  S
Al137       O146   1.778       .  S
C138        O151   1.263       .  A
C138       C1978   1.477       .  S
O139        C149   1.262       .  A
O139       Al141   1.913       .  S
O140        C153   1.260       .  A
O140       Al150   1.885       .  S
Al141       O154   1.946       .  S
Al141       O151   1.928       .  S
Al141       O146   1.785       .  S
O142        C149   1.264       .  A
O142       Al150   1.923       .  S
O143        C152   1.263       .  A
O143       Al150   1.915       .  S
O144       Al150   1.880       .  S
O145        C152   1.260       .  A
O146       Al150   1.772       .  S
O147        C148   1.270       .  A
C148       C1998   1.490       .  S
C149       C2009   1.471       .  S
C152       C2149   1.489       .  S
C153        O154   1.268       .  A
C153       C2558   1.481       .  S
O155        C170   1.264       .  A
O155       Al163   1.916       .  S
C156        O166   1.265       .  A
C156        O157   1.262       .  A
C156       C1949   1.469       .  S
O157       Al159   1.893       .  S
O158        C160   1.260       .  A
O158       Al159   1.898       .  S
Al159       O167   1.910       .  S
Al159       O169   1.886       .  S
Al159       O168   1.776       .  S
C160        O173   1.262       .  A
C160       C1929   1.484       .  S
O161        C171   1.262       .  A
O161       Al163   1.922       .  S
O162        C175   1.267       .  A
O162       Al172   1.906       .  S
Al163       O176   1.925       .  S
Al163       O173   1.917       .  S
Al163       O168   1.787       .  S
O164        C171   1.259       .  A
O164       Al172   1.905       .  S
O165        C174   1.262       .  A
O165       Al172   1.923       .  S
O166       Al172   1.912       .  S
O167        C174   1.261       .  A
O168       Al172   1.787       .  S
O169        C170   1.258       .  A
C170       C2489   1.484       .  S
C171       C1918   1.473       .  S
C174       C2118   1.490       .  S
C175        O176   1.268       .  A
C175       C1989   1.486       .  S
O177        C192   1.262       .  A
O177       Al185   1.894       .  S
C178        O188   1.259       .  A
C178        O179   1.264       .  A
C178       C2189   1.476       .  S
O179       Al181   1.924       .  S
O180        C182   1.258       .  A
O180       Al181   1.890       .  S
Al181       O189   1.903       .  S
Al181       O191   1.921       .  S
Al181       O190   1.779       .  S
C182        O195   1.266       .  A
C182       C1829   1.477       .  S
O183        C193   1.262       .  A
O183       Al185   1.908       .  S
O184        C197   1.261       .  A
O184       Al194   1.894       .  S
Al185       O198   1.939       .  S
Al185       O195   1.942       .  S
Al185       O190   1.783       .  S
O186        C193   1.263       .  A
O186       Al194   1.914       .  S
O187        C196   1.264       .  A
O187       Al194   1.918       .  S
O188       Al194   1.885       .  S
O189        C196   1.262       .  A
O190       Al194   1.772       .  S
O191        C192   1.266       .  A
C192       C1889   1.476       .  S
C193       C2389   1.465       .  S
C196       C1869   1.488       .  S
C197        O198   1.267       .  A
C197       C1858   1.485       .  S
O199        C214   1.262       .  A
O199       Al207   1.912       .  S
C200        O210   1.264       .  A
C200        O201   1.264       .  A
C200       C2078   1.468       .  S
O201       Al203   1.917       .  S
O202        C204   1.261       .  A
O202       Al203   1.893       .  S
Al203       O211   1.903       .  S
Al203       O213   1.905       .  S
Al203       O212   1.777       .  S
C204        O217   1.265       .  A
C204       C2269   1.485       .  S
O205        C215   1.261       .  A
O205       Al207   1.920       .  S
O206        C219   1.264       .  A
O206       Al216   1.886       .  S
Al207       O220   1.927       .  S
Al207       O217   1.920       .  S
Al207       O212   1.783       .  S
O208        C215   1.259       .  A
O208       Al216   1.909       .  S
O209        C218   1.263       .  A
O209       Al216   1.928       .  S
O210       Al216   1.912       .  S
O211        C218   1.261       .  A
O212       Al216   1.784       .  S
O213        C214   1.261       .  A
C214       C1789   1.490       .  S
C215       C1769   1.480       .  S
C218       C1818   1.485       .  S
C219        O220   1.268       .  A
C219       C1898   1.479       .  S
O221        C236   1.259       .  A
O221       Al229   1.875       .  S
C222        O232   1.261       .  A
C222        O223   1.268       .  A
C222       C2378   1.481       .  S
O223       Al225   1.931       .  S
O224        C226   1.256       .  A
O224       Al225   1.882       .  S
Al225       O233   1.908       .  S
Al225       O235   1.926       .  S
Al225       O234   1.781       .  S
C226        O239   1.266       .  A
C226       C1709   1.491       .  S
O227        C237   1.259       .  A
O227       Al229   1.900       .  S
O228        C241   1.262       .  A
O228       Al238   1.888       .  S
Al229       O242   1.954       .  S
Al229       O239   1.943       .  S
Al229       O234   1.786       .  S
O230        C237   1.261       .  A
O230       Al238   1.914       .  S
O231        C240   1.260       .  A
O231       Al238   1.914       .  S
O232       Al238   1.877       .  S
O233        C240   1.259       .  A
O234       Al238   1.774       .  S
O235        C236   1.268       .  A
C236       C1749   1.479       .  S
C237       C2589   1.461       .  S
C240       C1849   1.491       .  S
C241        O242   1.271       .  A
C241       C1738   1.485       .  S
O243        C258   1.263       .  A
O243       Al251   1.913       .  S
C244        O254   1.265       .  A
C244        O245   1.267       .  A
C244       C2249   1.468       .  S
O245       Al247   1.910       .  S
O246        C248   1.255       .  A
O246       Al247   1.875       .  S
Al247       O255   1.896       .  S
Al247       O257   1.896       .  S
Al247       O256   1.772       .  S
C248        O261   1.265       .  A
C248       C2438   1.490       .  S
O249        C259   1.265       .  A
O249       Al251   1.930       .  S
O250        C263   1.266       .  A
O250       Al260   1.892       .  S
Al251       O264   1.930       .  S
Al251       O261   1.938       .  S
Al251       O256   1.786       .  S
O252        C259   1.261       .  A
O252       Al260   1.915       .  S
O253        C262   1.261       .  A
O253       Al260   1.928       .  S
O254       Al260   1.903       .  S
O255        C262   1.255       .  A
O256       Al260   1.788       .  S
O257        C258   1.261       .  A
C258       C1689   1.488       .  S
C259       C1669   1.486       .  S
C262       C1798   1.489       .  S
C263        O264   1.270       .  A
C263       C1758   1.481       .  S
O265        C280   1.263       .  A
O265       Al273   1.896       .  S
C266        O276   1.262       .  A
C266        O267   1.268       .  A
C266       C2609   1.478       .  S
O267       Al269   1.924       .  S
O268        C270   1.255       .  A
O268       Al269   1.871       .  S
Al269       O277   1.902       .  S
Al269       O279   1.916       .  S
Al269       O278   1.778       .  S
C270        O283   1.264       .  A
C270       C1609   1.490       .  S
O271        C281   1.264       .  A
O271       Al273   1.924       .  S
O272        C285   1.264       .  A
O272       Al282   1.894       .  S
Al273       O286   1.943       .  S
Al273       O283   1.940       .  S
Al273       O278   1.787       .  S
O274        C281   1.262       .  A
O274       Al282   1.915       .  S
O275        C284   1.260       .  A
O275       Al282   1.917       .  S
O276       Al282   1.883       .  S
O277        C284   1.257       .  A
O278       Al282   1.778       .  S
O279        C280   1.266       .  A
C280       C1658   1.486       .  S
C281       C2018   1.482       .  S
C284       C1729   1.490       .  S
C285        O286   1.271       .  A
C285       C1638   1.481       .  S
O287        C302   1.262       .  A
O287       Al295   1.918       .  S
C288        O298   1.266       .  A
C288        O289   1.263       .  A
C288       C2458   1.476       .  S
O289       Al291   1.907       .  S
O290        C292   1.261       .  A
O290       Al291   1.891       .  S
Al291       O299   1.907       .  S
Al291       O301   1.892       .  S
Al291       O300   1.776       .  S
C292        O305   1.264       .  A
C292       C1938   1.484       .  S
O293        C303   1.260       .  A
O293       Al295   1.918       .  S
O294        C307   1.266       .  A
O294       Al304   1.901       .  S
Al295       O308   1.922       .  S
Al295       O305   1.918       .  S
Al295       O300   1.785       .  S
O296        C303   1.257       .  A
O296       Al304   1.898       .  S
O297        C306   1.261       .  A
O297       Al304   1.917       .  S
O298       Al304   1.924       .  S
O299        C306   1.261       .  A
O300       Al304   1.784       .  S
O301        C302   1.259       .  A
C302       C1598   1.489       .  S
C303       C1569   1.475       .  S
C306       C1698   1.483       .  S
C307        O308   1.268       .  A
C307       C1649   1.482       .  S
O309        C324   1.262       .  A
O309       Al317   1.887       .  S
C310        O320   1.260       .  A
C310        O311   1.268       .  A
C310       C2029   1.479       .  S
O311       Al313   1.928       .  S
O312        C314   1.257       .  A
O312       Al313   1.885       .  S
Al313       O321   1.893       .  S
Al313       O323   1.921       .  S
Al313       O322   1.776       .  S
C314        O327   1.265       .  A
C314       C1529   1.485       .  S
O315        C325   1.261       .  A
O315       Al317   1.908       .  S
O316        C329   1.260       .  A
O316       Al326   1.882       .  S
Al317       O330   1.954       .  S
Al317       O327   1.935       .  S
Al317       O322   1.783       .  S
O318        C325   1.263       .  A
O318       Al326   1.925       .  S
O319        C328   1.262       .  A
O319       Al326   1.922       .  S
O320       Al326   1.884       .  S
O321        C328   1.257       .  A
O322       Al326   1.777       .  S
O323        C324   1.266       .  A
C324       C1558   1.474       .  S
C325       C2218   1.471       .  S
C328       C1629   1.485       .  S
C329        O330   1.271       .  A
C329       C1878   1.486       .  S
O331        C346   1.264       .  A
O331       Al339   1.907       .  S
C332        O342   1.258       .  A
C332        O333   1.266       .  A
C332       C1958   1.458       .  S
O333       Al335   1.917       .  S
O334        C336   1.259       .  A
O334       Al335   1.890       .  S
Al335       O343   1.900       .  S
Al335       O345   1.911       .  S
Al335       O344   1.776       .  S
C336        O349   1.265       .  A
C336       C2098   1.490       .  S
O337        C347   1.264       .  A
O337       Al339   1.925       .  S
O338        C351   1.260       .  A
O338       Al348   1.875       .  S
Al339       O352   1.935       .  S
Al339       O349   1.932       .  S
Al339       O344   1.783       .  S
O340        C347   1.261       .  A
O340       Al348   1.913       .  S
O341        C350   1.262       .  A
O341       Al348   1.924       .  S
O342       Al348   1.884       .  S
O343        C350   1.258       .  A
O344       Al348   1.790       .  S
O345        C346   1.263       .  A
C346       C1809   1.489       .  S
C347       C1518   1.479       .  S
C350       C1589   1.486       .  S
C351        O352   1.269       .  A
C351       C1549   1.469       .  S
O353        C368   1.262       .  A
O353       Al361   1.897       .  S
C354        O364   1.260       .  A
C354        O355   1.265       .  A
C354       C1498   1.476       .  S
O355       Al357   1.928       .  S
O356        C358   1.259       .  A
O356       Al357   1.887       .  S
Al357       O365   1.900       .  S
Al357       O367   1.922       .  S
Al357       O366   1.781       .  S
C358        O371   1.267       .  A
C358       C1778   1.485       .  S
O359        C369   1.263       .  A
O359       Al361   1.917       .  S
O360        C373   1.260       .  A
O360       Al370   1.887       .  S
Al361       O374   1.938       .  S
Al361       O371   1.945       .  S
Al361       O366   1.786       .  S
O362        C369   1.263       .  A
O362       Al370   1.920       .  S
O363        C372   1.264       .  A
O363       Al370   1.923       .  S
O364       Al370   1.881       .  S
O365        C372   1.259       .  A
O366       Al370   1.773       .  S
O367        C368   1.265       .  A
C368       C1449   1.487       .  S
C369       C1469   1.474       .  S
C372       C1429   1.489       .  S
C373        O374   1.268       .  A
C373       C1418   1.479   1_655  S
O375        C390   1.263       .  A
O375       Al383   1.912       .  S
C376        O386   1.265       .  A
C376        O377   1.266       .  A
C376       C1329   1.469       .  S
O377       Al379   1.914       .  S
O378        C380   1.261       .  A
O378       Al379   1.898       .  S
Al379       O387   1.907       .  S
Al379       O389   1.899       .  S
Al379       O388   1.779       .  S
C380        O393   1.262       .  A
C380       C1349   1.486       .  S
O381        C391   1.262       .  A
O381       Al383   1.927       .  S
O382        C395   1.265       .  A
O382       Al392   1.894       .  S
Al383       O396   1.932       .  S
Al383       O393   1.914       .  S
Al383       O388   1.787       .  S
O384        C391   1.257       .  A
O384       Al392   1.898       .  S
O385        C394   1.257       .  A
O385       Al392   1.903       .  S
O386       Al392   1.911       .  S
O387        C394   1.259       .  A
O388       Al392   1.785       .  S
O389        C390   1.260       .  A
C390       C1369   1.479       .  S
C391       C1838   1.484       .  S
C394       C1389   1.480       .  S
C395        O396   1.269       .  A
C395       C1458   1.486       .  S
O397        C412   1.264       .  A
O397       Al405   1.889       .  S
C398        O408   1.259       .  A
C398        O399   1.270       .  A
C398       C1309   1.482       .  S
O399       Al401   1.939       .  S
O400        C402   1.253       .  A
O400       Al401   1.881       .  S
Al401       O409   1.895       .  S
Al401       O411   1.946       .  S
Al401       O410   1.777       .  S
C402        O415   1.260       .  A
C402       C1578   1.479       .  S
O403        C413   1.265       .  A
O403       Al405   1.922       .  S
O404        C417   1.262       .  A
O404       Al414   1.891       .  S
Al405       O418   1.940       .  S
Al405       O415   1.928       .  S
Al405       O410   1.784       .  S
O406        C413   1.265       .  A
O406       Al414   1.926       .  S
O407        C416   1.260       .  A
O407       Al414   1.918       .  S
O408       Al414   1.871       .  S
O409        C416   1.257       .  A
O410       Al414   1.776       .  S
O411        C412   1.273       .  A
C412       C1269   1.493       .  S
C413       C1289   1.476       .  S
C416       C1249   1.488       .  S
C417        O418   1.268       .  A
C417       C1238   1.478       .  S
O419        C434   1.262       .  A
O419       Al427   1.911       .  S
C420        O430   1.262       .  A
C420        O421   1.262       .  A
C420       C1178   1.464       .  S
O421       Al423   1.910       .  S
O422        C424   1.261       .  A
O422       Al423   1.887       .  S
Al423       O431   1.902       .  S
Al423       O433   1.899       .  S
Al423       O432   1.777       .  S
C424        O437   1.268       .  A
C424       C1158   1.488       .  S
O425        C435   1.261       .  A
O425       Al427   1.917       .  S
O426        C439   1.264       .  A
O426       Al436   1.895       .  S
Al427       O440   1.942       .  S
Al427       O437   1.936       .  S
Al427       O432   1.784       .  S
O428        C435   1.260       .  A
O428       Al436   1.907       .  S
O429        C438   1.264       .  A
O429       Al436   1.928       .  S
O430       Al436   1.912       .  S
O431        C438   1.262       .  A
O432       Al436   1.781       .  S
O433        C434   1.260       .  A
C434       C1198   1.487       .  S
C435       C1618   1.483       .  S
C438       C1209   1.488       .  S
C439        O440   1.272       .  A
C439       C1278   1.490       .  S
O441        C456   1.262       .  A
O441       Al449   1.886       .  S
C442        O452   1.261       .  A
C442        O443   1.269       .  A
C442       C1109   1.476       .  S
O443       Al445   1.935       .  S
O444        C446   1.256       .  A
O444       Al445   1.883       .  S
Al445       O453   1.903       .  S
Al445       O455   1.926       .  S
Al445       O454   1.779       .  S
C446        O459   1.266       .  A
C446       C1678   1.490       .  S
O447        C457   1.264       .  A
O447       Al449   1.924       .  S
O448        C461   1.261       .  A
O448       Al458   1.882       .  S
Al449       O462   1.959       .  S
Al449       O459   1.946       .  S
Al449       O454   1.782       .  S
O450        C457   1.261       .  A
O450       Al458   1.910       .  S
O451        C460   1.258       .  A
O451       Al458   1.904       .  S
O452       Al458   1.874       .  S
O453        C460   1.258       .  A
O454       Al458   1.772       .  S
O455        C456   1.268       .  A
C456       C1089   1.484       .  S
C457       C1129   1.477       .  S
C460       C1229   1.483       .  S
C461        O462   1.273       .  A
C461       C1438   1.487       .  S
O463        C478   1.264       .  A
O463       Al471   1.911       .  S
C464        O474   1.262       .  A
C464        O465   1.263       .  A
C464       C1058   1.459       .  S
O465       Al467   1.904       .  S
O466        C468   1.257       .  A
O466       Al467   1.881       .  S
Al467       O475   1.895       .  S
Al467       O477   1.898       .  S
Al467       O476   1.772       .  S
C468        O481   1.264       .  A
C468       C1078   1.488       .  S
O469        C479   1.265       .  A
O469       Al471   1.925       .  S
O470        C483   1.264       .  A
O470       Al480   1.895       .  S
Al471       O484   1.932       .  S
Al471       O481   1.937       .  S
Al471       O476   1.784       .  S
O472        C479   1.261       .  A
O472       Al480   1.912       .  S
O473        C482   1.261       .  A
O473       Al480   1.924       .  S
O474       Al480   1.901       .  S
O475        C482   1.257       .  A
O476       Al480   1.785       .  S
O477        C478   1.262       .  A
C478       C1398   1.484       .  S
C479       C1718   1.479       .  S
C482       C1189   1.484       .  S
C483        O484   1.270       .  A
C483       C1098   1.485       .  S
O485        C500   1.263       .  A
O485       Al493   1.895       .  S
C486        O496   1.261       .  A
C486        O487   1.266       .  A
C486       C1029   1.480       .  S
O487       Al489   1.929       .  S
O488        C490   1.256       .  A
O488       Al489   1.881       .  S
Al489       O497   1.901       .  S
Al489       O499   1.924       .  S
Al489       O498   1.782       .  S
C490        O503   1.266       .  A
C490       C1509   1.489       .  S
O491        C501   1.263       .  A
O491       Al493   1.918       .  S
O492        C505   1.262       .  A
O492       Al502   1.894       .  S
Al493       O506   1.946       .  S
Al493       O503   1.947       .  S
Al493       O498   1.785       .  S
O494        C501   1.260       .  A
O494       Al502   1.909       .  S
O495        C504   1.260       .  A
O495       Al502   1.911       .  S
O496       Al502   1.880       .  S
O497        C504   1.258       .  A
O498       Al502   1.776       .  S
O499        C500   1.266       .  A
C500        C989   1.488       .  S
C501       C1009   1.468       .  S
C504       C1409   1.486       .  S
C505        O506   1.270       .  A
C505       C1258   1.483   1_545  S
O507        C522   1.268       .  A
O507       Al515   1.914       .  S
C508        O518   1.261       .  A
C508        O509   1.260       .  A
C508        C978   1.468       .  S
O509       Al511   1.891       .  S
O510        C512   1.254       .  A
O510       Al511   1.886       .  S
Al511       O519   1.893       .  S
Al511       O521   1.912       .  S
Al511       O520   1.777       .  S
C512        O525   1.260       .  A
C512        C949   1.485       .  S
O513        C523   1.267       .  A
O513       Al515   1.921       .  S
O514        C527   1.262       .  A
O514       Al524   1.905       .  S
Al515       O528   1.922       .  S
Al515       O525   1.931       .  S
Al515       O520   1.790       .  S
O516        C523   1.265       .  A
O516       Al524   1.917       .  S
O517        C526   1.261       .  A
O517       Al524   1.914       .  S
O518       Al524   1.907       .  S
O519        C526   1.258       .  A
O520       Al524   1.790       .  S
O521        C522   1.266       .  A
C522       C1218   1.490       .  S
C523       C1538   1.479       .  S
C526       C1378   1.483       .  S
C527        O528   1.264       .  A
C527        C998   1.488       .  S
O529        C544   1.260       .  A
O529       Al537   1.907       .  S
C530        O540   1.262       .  A
C530        O531   1.267       .  A
C530       C1338   1.463       .  S
O531       Al533   1.926       .  S
O532        C534   1.259       .  A
O532       Al533   1.887       .  S
Al533       O541   1.900       .  S
Al533       O543   1.913       .  S
Al533       O542   1.778       .  S
C534        O547   1.267       .  A
C534       C1069   1.487       .  S
O535        C545   1.260       .  A
O535       Al537   1.927       .  S
O536        C549   1.264       .  A
O536       Al546   1.881       .  S
Al537       O550   1.934       .  S
Al537       O547   1.929       .  S
Al537       O542   1.782       .  S
O538        C545   1.255       .  A
O538       Al546   1.895       .  S
O539        C548   1.260       .  A
O539       Al546   1.923       .  S
O540       Al546   1.899       .  S
O541        C548   1.259       .  A
O542       Al546   1.789       .  S
O543        C544   1.261       .  A
C544        C898   1.494       .  S
C545       C2138   1.481       .  S
C548        C918   1.482       .  S
C549        O550   1.272       .  A
C549        C929   1.468       .  S
O551        C566   1.262       .  A
O551       Al559   1.882       .  S
C552        O562   1.260       .  A
C552        O553   1.269       .  A
C552       C1489   1.480       .  S
O553       Al555   1.928       .  S
O554        C556   1.254       .  A
O554       Al555   1.883       .  S
Al555       O563   1.894       .  S
Al555       O565   1.927       .  S
Al555       O564   1.775       .  S
C556        O569   1.264       .  A
C556       C2058   1.482       .  S
O557        C567   1.263       .  A
O557       Al559   1.914       .  S
O558        C571   1.261       .  A
O558       Al568   1.889       .  S
Al559       O572   1.957       .  S
Al559       O569   1.942       .  S
Al559       O564   1.781       .  S
O560        C567   1.263       .  A
O560       Al568   1.923       .  S
O561        C570   1.260       .  A
O561       Al568   1.913       .  S
O562       Al568   1.879       .  S
O563        C570   1.256       .  A
O564       Al568   1.775       .  S
O565        C566   1.269       .  A
C566        C938   1.475       .  S
C567       C1138   1.472       .  S
C570        C869   1.484       .  S
C571        O572   1.272       .  A
C571        C858   1.482   1_545  S
O573        C588   1.262       .  A
O573       Al581   1.921       .  S
C574        O584   1.268       .  A
C574        O575   1.263       .  A
C574       C1049   1.477       .  S
O575       Al577   1.894       .  S
O576        C578   1.261       .  A
O576       Al577   1.900       .  S
Al577       O585   1.913       .  S
Al577       O587   1.885       .  S
Al577       O586   1.777       .  S
C578        O591   1.263       .  A
C578       C1149   1.482       .  S
O579        C589   1.262       .  A
O579       Al581   1.931       .  S
O580        C593   1.267       .  A
O580       Al590   1.897       .  S
Al581       O594   1.911       .  S
Al581       O591   1.912       .  S
Al581       O586   1.788       .  S
O582        C589   1.259       .  A
O582       Al590   1.914       .  S
O583        C592   1.262       .  A
O583       Al590   1.929       .  S
O584       Al590   1.920       .  S
O585        C592   1.260       .  A
O586       Al590   1.789       .  S
O587        C588   1.257       .  A
C588        C809   1.488       .  S
C589       C2309   1.488       .  S
C592        C889   1.491       .  S
C593        O594   1.267       .  A
C593        C829   1.478       .  S
O595        C610   1.262       .  A
O595       Al603   1.885       .  S
C596        O606   1.261       .  A
C596        O597   1.266       .  A
C596       C1118   1.478       .  S
O597       Al599   1.919       .  S
O598        C600   1.257       .  A
O598       Al599   1.889       .  S
Al599       O607   1.897       .  S
Al599       O609   1.919       .  S
Al599       O608   1.777       .  S
C600        O613   1.265       .  A
C600       C2229   1.487       .  S
O601        C611   1.265       .  A
O601       Al603   1.916       .  S
O602        C615   1.261       .  A
O602       Al612   1.893       .  S
Al603       O616   1.939       .  S
Al603       O613   1.940       .  S
Al603       O608   1.783       .  S
O604        C611   1.266       .  A
O604       Al612   1.925       .  S
O605        C614   1.262       .  A
O605       Al612   1.924       .  S
O606       Al612   1.886       .  S
O607        C614   1.258       .  A
O608       Al612   1.774       .  S
O609        C610   1.266       .  A
C610        C838   1.473       .  S
C611       C1298   1.479       .  S
C614        C849   1.490       .  S
C615        O616   1.267       .  A
C615        C798   1.477   1_655  S
O617        C632   1.260       .  A
O617       Al625   1.903       .  S
C618        O628   1.264       .  A
C618        O619   1.265       .  A
C618       C1169   1.466       .  S
O619       Al621   1.917       .  S
O620        C622   1.262       .  A
O620       Al621   1.899       .  S
Al621       O629   1.913       .  S
Al621       O631   1.900       .  S
Al621       O630   1.778       .  S
C622        O635   1.265       .  A
C622        C958   1.488       .  S
O623        C633   1.258       .  A
O623       Al625   1.913       .  S
O624        C637   1.264       .  A
O624       Al634   1.885       .  S
Al625       O638   1.928       .  S
Al625       O635   1.916       .  S
Al625       O630   1.783       .  S
O626        C633   1.257       .  A
O626       Al634   1.907       .  S
O627        C636   1.261       .  A
O627       Al634   1.919       .  S
O628       Al634   1.906       .  S
O629        C636   1.261       .  A
O630       Al634   1.783       .  S
O631        C632   1.260       .  A
C632        C749   1.485       .  S
C633       C2518   1.474       .  S
C636        C818   1.482       .  S
C637        O638   1.270       .  A
C637        C778   1.479       .  S
O639        C654   1.260       .  A
O639       Al647   1.882       .  S
C640        O650   1.259       .  A
C640        O641   1.266       .  A
C640       C1318   1.471       .  S
O641       Al643   1.931       .  S
O642        C644   1.256       .  A
O642       Al643   1.880       .  S
Al643       O651   1.899       .  S
Al643       O653   1.926       .  S
Al643       O652   1.780       .  S
C644        O657   1.265       .  A
C644       C2418   1.481       .  S
O645        C655   1.263       .  A
O645       Al647   1.912       .  S
O646        C659   1.260       .  A
O646       Al656   1.884       .  S
Al647       O660   1.940       .  S
Al647       O657   1.937       .  S
Al647       O652   1.785       .  S
O648        C655   1.264       .  A
O648       Al656   1.914       .  S
O649        C658   1.261       .  A
O649       Al656   1.909       .  S
O650       Al656   1.875       .  S
O651        C658   1.259       .  A
O652       Al656   1.770       .  S
O653        C654   1.268       .  A
C654        C769   1.474       .  S
C655       C1018   1.481       .  S
C658        C789   1.480       .  S
C659        O660   1.268       .  A
C659        C729   1.483       .  S
O661        C676   1.260       .  A
O661       Al669   1.907       .  S
C662        O672   1.266       .  A
C662        O663   1.267       .  A
C662        C969   1.477       .  S
O663       Al665   1.910       .  S
O664        C666   1.258       .  A
O664       Al665   1.882       .  S
Al665       O673   1.906       .  S
Al665       O675   1.893       .  S
Al665       O674   1.774       .  S
C666        O679   1.266       .  A
C666       C1358   1.487       .  S
O667        C677   1.259       .  A
O667       Al669   1.917       .  S
O668        C681   1.267       .  A
O668       Al678   1.896       .  S
Al669       O682   1.934       .  S
Al669       O679   1.931       .  S
Al669       O674   1.785       .  S
O670        C677   1.257       .  A
O670       Al678   1.896       .  S
O671        C680   1.259       .  A
O671       Al678   1.913       .  S
O672       Al678   1.912       .  S
O673        C680   1.259       .  A
O674       Al678   1.788       .  S
O675        C676   1.258       .  A
C676        C909   1.486       .  S
C677       C1969   1.475       .  S
C680        C758   1.476       .  S
C681        O682   1.272       .  A
C681        C718   1.487       .  S
O683        C698   1.265       .  A
O683       Al691   1.904       .  S
C684        O694   1.260       .  A
C684        O685   1.266       .  A
C684       C1038   1.477       .  S
O685       Al687   1.922       .  S
O686        C688   1.257       .  A
O686       Al687   1.886       .  S
Al687       O695   1.905       .  S
Al687       O697   1.916       .  S
Al687       O696   1.783       .  S
C688        O701   1.263       .  A
C688       C1909   1.483       .  S
O689        C699   1.267       .  A
O689       Al691   1.932       .  S
O690        C703   1.262       .  A
O690       Al700   1.892       .  S
Al691       O704   1.933       .  S
Al691       O701   1.929       .  S
Al691       O696   1.786       .  S
O692        C699   1.262       .  A
O692       Al700   1.902       .  S
O693        C702   1.258       .  A
O693       Al700   1.901       .  S
O694       Al700   1.881       .  S
O695        C702   1.259       .  A
O696       Al700   1.774       .  S
O697        C698   1.266       .  A
C698        C709   1.485       .  S
C699       C1478   1.487       .  S
C702        C738   1.485       .  S
C703        O704   1.267       .  A
C703        C878   1.480       .  S
C705        C706   1.405       .  A
C705        C710   1.400       .  A
C705        H715   1.083       .  S
C706        C711   1.486   1_556  S
C706        C707   1.406       .  A
C707        C708   1.399       .  A
C707        F712   1.358       .  S
C708        C709   1.408       .  A
C708        H713   1.083       .  S
C709        C710   1.409       .  A
C710        F714   1.357       .  S
C711        C716   1.405       .  A
C711        C720   1.405       .  A
C716        C717   1.398       .  A
C716        F721   1.357       .  S
C717        C718   1.407       .  A
C717        H722   1.083       .  S
C718        C719   1.411       .  A
C719        C720   1.401       .  A
C719        F723   1.358       .  S
C720        H724   1.083       .  S
C725        C726   1.407       .  A
C725        C730   1.400       .  A
C725        H735   1.083       .  S
C726        C731   1.488       .  S
C726        C727   1.407       .  A
C727        C728   1.396   1_545  A
C727        F732   1.358       .  S
C728        C729   1.407       .  A
C728        H733   1.083       .  S
C729        C730   1.408   1_565  A
C730        F734   1.357       .  S
C731        C736   1.408       .  A
C731        C740   1.404       .  A
C736        C737   1.402       .  A
C736        F741   1.357       .  S
C737        C738   1.407       .  A
C737        H742   1.083       .  S
C738        C739   1.409       .  A
C739        C740   1.394       .  A
C739        F743   1.358       .  S
C740        H744   1.083       .  S
C745        C746   1.406       .  A
C745        C750   1.402       .  A
C745        H755   1.083       .  S
C746        C751   1.484       .  S
C746        C747   1.405       .  A
C747        C748   1.395   1_545  A
C747        F752   1.358       .  S
C748        C749   1.407       .  A
C748        H753   1.083       .  S
C749        C750   1.410   1_565  A
C750        F754   1.357   1_545  S
C751        C756   1.406       .  A
C751        C760   1.406       .  A
C756        C757   1.397       .  A
C756        F761   1.358       .  S
C757        C758   1.405       .  A
C757        H762   1.084       .  S
C758        C759   1.405       .  A
C759        C760   1.400       .  A
C759        F763   1.357       .  S
C760        H764   1.083       .  S
C765        C766   1.404       .  A
C765        C770   1.397       .  A
C765        H775   1.083       .  S
C766        C771   1.481   1_556  S
C766        C767   1.407       .  A
C767        C768   1.396       .  A
C767        F772   1.358       .  S
C768        C769   1.403       .  A
C768        H773   1.083       .  S
C769        C770   1.408       .  A
C770        F774   1.358       .  S
C771        C776   1.406       .  A
C771        C780   1.403       .  A
C776        C777   1.398       .  A
C776        F781   1.357       .  S
C777        C778   1.406       .  A
C777        H782   1.083       .  S
C778        C779   1.408       .  A
C779        C780   1.394       .  A
C779        F783   1.358       .  S
C780        H784   1.083       .  S
C785        C786   1.405       .  A
C785        C790   1.395       .  A
C785        H795   1.083       .  S
C786        C791   1.488       .  S
C786        C787   1.409       .  A
C787        C788   1.402       .  A
C787        F792   1.357       .  S
C788        C789   1.406       .  A
C788        H793   1.083       .  S
C789        C790   1.406       .  A
C790        F794   1.358       .  S
C791        C796   1.408       .  A
C791        C800   1.407       .  A
C796        C797   1.398       .  A
C796        F801   1.357       .  S
C797        C798   1.404       .  A
C797        H802   1.083   1_455  S
C798        C799   1.406       .  A
C799        C800   1.399       .  A
C799        F803   1.358       .  S
C800        H804   1.083       .  S
C805        C806   1.409       .  A
C805        C810   1.405       .  A
C805        H815   1.083       .  S
C806        C811   1.490       .  S
C806        C807   1.405       .  A
C807        C808   1.395       .  A
C807        F812   1.358       .  S
C808        C809   1.408   1_455  A
C808        H813   1.083   1_455  S
C809        C810   1.409   1_655  A
C810        F814   1.357       .  S
C811        C816   1.407       .  A
C811        C820   1.409       .  A
C816        C817   1.398       .  A
C816        F821   1.357       .  S
C817        C818   1.406       .  A
C817        H822   1.083       .  S
C818        C819   1.406       .  A
C819        C820   1.402       .  A
C819        F823   1.357       .  S
C820        H824   1.083       .  S
C825        C826   1.402       .  A
C825        C830   1.394       .  A
C825        H835   1.083       .  S
C826        C831   1.478   1_554  S
C826        C827   1.406       .  A
C827        C828   1.396       .  A
C827        F832   1.357       .  S
C828        C829   1.405       .  A
C828        H833   1.083       .  S
C829        C830   1.411       .  A
C830        F834   1.358       .  S
C831        C836   1.406       .  A
C831        C840   1.403       .  A
C836        C837   1.395       .  A
C836        F841   1.358       .  S
C837        C838   1.405       .  A
C837        H842   1.083       .  S
C838        C839   1.406       .  A
C839        C840   1.395       .  A
C839        F843   1.357       .  S
C840        H844   1.083       .  S
C845        C846   1.404       .  A
C845        C850   1.400       .  A
C845        H855   1.083       .  S
C846        C851   1.489       .  S
C846        C847   1.408       .  A
C847        C848   1.401       .  A
C847        F852   1.358       .  S
C848        C849   1.407       .  A
C848        H853   1.083       .  S
C849        C850   1.411       .  A
C850        F854   1.357       .  S
C851        C856   1.409       .  A
C851        C860   1.405       .  A
C856        C857   1.400       .  A
C856        F861   1.357       .  S
C857        C858   1.403       .  A
C857        H862   1.083       .  S
C858        C859   1.410       .  A
C859        C860   1.402       .  A
C859        F863   1.358   1_565  S
C860        H864   1.083       .  S
C865        C866   1.405       .  A
C865        C870   1.395       .  A
C865        H875   1.083       .  S
C866        C871   1.486       .  S
C866        C867   1.407       .  A
C867        C868   1.401       .  A
C867        F872   1.357       .  S
C868        C869   1.408       .  A
C868        H873   1.083       .  S
C869        C870   1.408       .  A
C870        F874   1.357       .  S
C871        C876   1.407       .  A
C871        C880   1.406       .  A
C876        C877   1.396   1_655  A
C876        F881   1.358       .  S
C877        C878   1.404       .  A
C877        H882   1.083       .  S
C878        C879   1.409   1_455  A
C879        C880   1.400       .  A
C879        F883   1.358       .  S
C880        H884   1.083       .  S
C885        C886   1.409       .  A
C885        C890   1.405       .  A
C885        H895   1.083       .  S
C886        C891   1.500       .  S
C886        C887   1.410       .  A
C887        C888   1.401       .  A
C887        F892   1.357       .  S
C888        C889   1.407       .  A
C888        H893   1.083       .  S
C889        C890   1.408       .  A
C890        F894   1.357       .  S
C891        C896   1.410       .  A
C891        C900   1.408       .  A
C896        C897   1.402       .  A
C896        F901   1.357       .  S
C897        C898   1.407   1_565  A
C897        H902   1.083   1_565  S
C898        C899   1.411   1_545  A
C899        C900   1.404       .  A
C899        F903   1.357       .  S
C900        H904   1.083       .  S
C905        C906   1.403       .  A
C905        C910   1.393   1_655  A
C905        H915   1.083       .  S
C906        C911   1.488       .  S
C906        C907   1.409       .  A
C907        C908   1.403       .  A
C907        F912   1.357       .  S
C908        C909   1.408   1_655  A
C908        H913   1.083   1_655  S
C909        C910   1.410       .  A
C910        F914   1.358       .  S
C911        C916   1.408       .  A
C911        C920   1.405       .  A
C916        C917   1.397       .  A
C916        F921   1.357       .  S
C917        C918   1.404       .  A
C917        H922   1.083       .  S
C918        C919   1.410       .  A
C919        C920   1.400       .  A
C919        F923   1.358       .  S
C920        H924   1.083       .  S
C925        C926   1.407       .  A
C925        C930   1.398       .  A
C925        H935   1.083       .  S
C926        C931   1.483   1_554  S
C926        C927   1.407       .  A
C927        C928   1.397       .  A
C927        F932   1.357       .  S
C928        C929   1.402       .  A
C928        H933   1.084       .  S
C929        C930   1.403       .  A
C930        F934   1.358       .  S
C931        C936   1.408       .  A
C931        C940   1.404       .  A
C936        C937   1.399       .  A
C936        F941   1.357       .  S
C937        C938   1.404       .  A
C937        H942   1.083       .  S
C938        C939   1.406       .  A
C939        C940   1.396       .  A
C939        F943   1.358       .  S
C940        H944   1.083       .  S
C945        C946   1.406       .  A
C945        C950   1.404   1_565  A
C945        H955   1.083       .  S
C946        C951   1.487       .  S
C946        C947   1.407   1_565  A
C947        C948   1.396       .  A
C947        F952   1.357       .  S
C948        C949   1.405       .  A
C948        H953   1.084       .  S
C949        C950   1.410       .  A
C950        F954   1.357   1_545  S
C951        C956   1.406       .  A
C951        C960   1.405       .  A
C956        C957   1.399       .  A
C956        F961   1.357       .  S
C957        C958   1.408       .  A
C957        H962   1.083       .  S
C958        C959   1.411       .  A
C959        C960   1.401       .  A
C959        F963   1.358       .  S
C960        H964   1.083       .  S
C965        C966   1.406       .  A
C965        C970   1.405       .  A
C965        H975   1.083       .  S
C966        C971   1.477       .  S
C966        C967   1.403       .  A
C967        C968   1.391       .  A
C967        F972   1.358       .  S
C968        C969   1.404       .  A
C968        H973   1.083       .  S
C969        C970   1.407       .  A
C970        F974   1.357       .  S
C971        C976   1.404       .  A
C971        C980   1.407       .  A
C976        C977   1.395       .  A
C976        F981   1.358       .  S
C977        C978   1.403       .  A
C977        H982   1.084       .  S
C978        C979   1.403       .  A
C979        C980   1.401       .  A
C979        F983   1.357       .  S
C980        H984   1.083       .  S
C985        C986   1.404       .  A
C985        C990   1.398       .  A
C985        H995   1.083       .  S
C986        C991   1.486       .  S
C986        C987   1.406       .  A
C987        C988   1.401       .  A
C987        F992   1.357       .  S
C988        C989   1.409       .  A
C988        H993   1.083       .  S
C989        C990   1.410       .  A
C990        F994   1.357       .  S
C991        C996   1.405       .  A
C991       C1000   1.406       .  A
C996        C997   1.397       .  A
C996       F1001   1.358       .  S
C997        C998   1.407       .  A
C997       H1002   1.083       .  S
C998        C999   1.410       .  A
C999       C1000   1.403       .  A
C999       F1003   1.357       .  S
C1000      H1004   1.083       .  S
C1005      C1006   1.405   1_545  A
C1005      C1010   1.400       .  A
C1005      H1015   1.083       .  S
C1006      C1011   1.485       .  S
C1006      C1007   1.408       .  A
C1007      C1008   1.400       .  A
C1007      F1012   1.358       .  S
C1008      C1009   1.402   1_565  A
C1008      H1013   1.083       .  S
C1009      C1010   1.403       .  A
C1010      F1014   1.357       .  S
C1011      C1016   1.408       .  A
C1011      C1020   1.403       .  A
C1016      C1017   1.405       .  A
C1016      F1021   1.357       .  S
C1017      C1018   1.405       .  A
C1017      H1022   1.083       .  S
C1018      C1019   1.409       .  A
C1019      C1020   1.395       .  A
C1019      F1023   1.358       .  S
C1020      H1024   1.083       .  S
C1025      C1026   1.404       .  A
C1025      C1030   1.400       .  A
C1025      H1035   1.083       .  S
C1026      C1031   1.476       .  S
C1026      C1027   1.404       .  A
C1027      C1028   1.392       .  A
C1027      F1032   1.358       .  S
C1028      C1029   1.406       .  A
C1028      H1033   1.083       .  S
C1029      C1030   1.409       .  A
C1030      F1034   1.357       .  S
C1031      C1036   1.405       .  A
C1031      C1040   1.401       .  A
C1036      C1037   1.398       .  A
C1036      F1041   1.357       .  S
C1037      C1038   1.406       .  A
C1037      H1042   1.083       .  S
C1038      C1039   1.409       .  A
C1039      C1040   1.393       .  A
C1039      F1043   1.357       .  S
C1040      H1044   1.084       .  S
C1045      C1046   1.398       .  A
C1045      C1050   1.386       .  A
C1045      H1055   1.084       .  S
C1046      C1051   1.476       .  S
C1046      C1047   1.407       .  A
C1047      C1048   1.406       .  A
C1047      F1052   1.357       .  S
C1048      C1049   1.406       .  A
C1048      H1053   1.083       .  S
C1049      C1050   1.410       .  A
C1050      F1054   1.358       .  S
C1051      C1056   1.408       .  A
C1051      C1060   1.403       .  A
C1056      C1057   1.395       .  A
C1056      F1061   1.358       .  S
C1057      C1058   1.398       .  A
C1057      H1062   1.084       .  S
C1058      C1059   1.404       .  A
C1059      C1060   1.398       .  A
C1059      F1063   1.358       .  S
C1060      H1064   1.083       .  S
C1065      C1066   1.403       .  A
C1065      C1070   1.401       .  A
C1065      H1075   1.083       .  S
C1066      C1071   1.486   1_545  S
C1066      C1067   1.406       .  A
C1067      C1068   1.401       .  A
C1067      F1072   1.357   1_545  S
C1068      C1069   1.406       .  A
C1068      H1073   1.083       .  S
C1069      C1070   1.412       .  A
C1070      F1074   1.358       .  S
C1071      C1076   1.405       .  A
C1071      C1080   1.406       .  A
C1076      C1077   1.396       .  A
C1076      F1081   1.358       .  S
C1077      C1078   1.407       .  A
C1077      H1082   1.083       .  S
C1078      C1079   1.411       .  A
C1079      C1080   1.405       .  A
C1079      F1083   1.357       .  S
C1080      H1084   1.083   1_565  S
C1085      C1086   1.403       .  A
C1085      C1090   1.397       .  A
C1085      H1095   1.083       .  S
C1086      C1091   1.483       .  S
C1086      C1087   1.406       .  A
C1087      C1088   1.399       .  A
C1087      F1092   1.357       .  S
C1088      C1089   1.407       .  A
C1088      H1093   1.083       .  S
C1089      C1090   1.411       .  A
C1090      F1094   1.358       .  S
C1091      C1096   1.406       .  A
C1091      C1100   1.404       .  A
C1096      C1097   1.397       .  A
C1096      F1101   1.358       .  S
C1097      C1098   1.407       .  A
C1097      H1102   1.083       .  S
C1098      C1099   1.410       .  A
C1099      C1100   1.399       .  A
C1099      F1103   1.357       .  S
C1100      H1104   1.083       .  S
C1105      C1106   1.405       .  A
C1105      C1110   1.399       .  A
C1105      H1115   1.083       .  S
C1106      C1111   1.477       .  S
C1106      C1107   1.404       .  A
C1107      C1108   1.392       .  A
C1107      F1112   1.358       .  S
C1108      C1109   1.405       .  A
C1108      H1113   1.084       .  S
C1109      C1110   1.408       .  A
C1110      F1114   1.357       .  S
C1111      C1116   1.405       .  A
C1111      C1120   1.403       .  A
C1116      C1117   1.397       .  A
C1116      F1121   1.358       .  S
C1117      C1118   1.406       .  A
C1117      H1122   1.083       .  S
C1118      C1119   1.409       .  A
C1119      C1120   1.395       .  A
C1119      F1123   1.358       .  S
C1120      H1124   1.083       .  S
C1125      C1126   1.400       .  A
C1125      C1130   1.395       .  A
C1125      H1135   1.084   1_565  S
C1126      C1131   1.478       .  S
C1126      C1127   1.406       .  A
C1127      C1128   1.405       .  A
C1127      F1132   1.357       .  S
C1128      C1129   1.405       .  A
C1128      H1133   1.083       .  S
C1129      C1130   1.408       .  A
C1130      F1134   1.358       .  S
C1131      C1136   1.405       .  A
C1131      C1140   1.404   1_565  A
C1136      C1137   1.398       .  A
C1136      F1141   1.358       .  S
C1137      C1138   1.403   1_565  A
C1137      H1142   1.084       .  S
C1138      C1139   1.405       .  A
C1139      C1140   1.402       .  A
C1139      F1143   1.357       .  S
C1140      H1144   1.083       .  S
C1145      C1146   1.404       .  A
C1145      C1150   1.399       .  A
C1145      H1155   1.083       .  S
C1146      C1151   1.483   1_655  S
C1146      C1147   1.406   1_655  A
C1147      C1148   1.400   1_455  A
C1147      F1152   1.357       .  S
C1148      C1149   1.407       .  A
C1148      H1153   1.083       .  S
C1149      C1150   1.407       .  A
C1150      F1154   1.356       .  S
C1151      C1156   1.405       .  A
C1151      C1160   1.404       .  A
C1156      C1157   1.397       .  A
C1156      F1161   1.358       .  S
C1157      C1158   1.408       .  A
C1157      H1162   1.083       .  S
C1158      C1159   1.411       .  A
C1159      C1160   1.403       .  A
C1159      F1163   1.357       .  S
C1160      H1164   1.083   1_455  S
C1165      C1166   1.405       .  A
C1165      C1170   1.400       .  A
C1165      H1175   1.083       .  S
C1166      C1171   1.477       .  S
C1166      C1167   1.406       .  A
C1167      C1168   1.395       .  A
C1167      F1172   1.358       .  S
C1168      C1169   1.402       .  A
C1168      H1173   1.084       .  S
C1169      C1170   1.403       .  A
C1170      F1174   1.357       .  S
C1171      C1176   1.406       .  A
C1171      C1180   1.403       .  A
C1176      C1177   1.401       .  A
C1176      F1181   1.357       .  S
C1177      C1178   1.403       .  A
C1177      H1182   1.084       .  S
C1178      C1179   1.402       .  A
C1179      C1180   1.395       .  A
C1179      F1183   1.358       .  S
C1180      H1184   1.084       .  S
C1185      C1186   1.406       .  A
C1185      C1190   1.399       .  A
C1185      H1195   1.083       .  S
C1186      C1191   1.490       .  S
C1186      C1187   1.408       .  A
C1187      C1188   1.400       .  A
C1187      F1192   1.357       .  S
C1188      C1189   1.407       .  A
C1188      H1193   1.083       .  S
C1189      C1190   1.408       .  A
C1190      F1194   1.358       .  S
C1191      C1196   1.407       .  A
C1191      C1200   1.407       .  A
C1196      C1197   1.395   1_655  A
C1196      F1201   1.358       .  S
C1197      C1198   1.407       .  A
C1197      H1202   1.083       .  S
C1198      C1199   1.409   1_455  A
C1199      C1200   1.403       .  A
C1199      F1203   1.357       .  S
C1200      H1204   1.083       .  S
C1205      C1206   1.404       .  A
C1205      C1210   1.399       .  A
C1205      H1215   1.083       .  S
C1206      C1211   1.490       .  S
C1206      C1207   1.409       .  A
C1207      C1208   1.401       .  A
C1207      F1212   1.358       .  S
C1208      C1209   1.407       .  A
C1208      H1213   1.083       .  S
C1209      C1210   1.411       .  A
C1210      F1214   1.357       .  S
C1211      C1216   1.409       .  A
C1211      C1220   1.403       .  A
C1216      C1217   1.404       .  A
C1216      F1221   1.357       .  S
C1217      C1218   1.407   1_565  A
C1217      H1222   1.083       .  S
C1218      C1219   1.412   1_545  A
C1219      C1220   1.396       .  A
C1219      F1223   1.358   1_565  S
C1220      H1224   1.083       .  S
C1225      C1226   1.403       .  A
C1225      C1230   1.394       .  A
C1225      H1235   1.083       .  S
C1226      C1231   1.483       .  S
C1226      C1227   1.407       .  A
C1227      C1228   1.402       .  A
C1227      F1232   1.357       .  S
C1228      C1229   1.407       .  A
C1228      H1233   1.083       .  S
C1229      C1230   1.409       .  A
C1230      F1234   1.358       .  S
C1231      C1236   1.406       .  A
C1231      C1240   1.405       .  A
C1236      C1237   1.397   1_655  A
C1236      F1241   1.358       .  S
C1237      C1238   1.404       .  A
C1237      H1242   1.083       .  S
C1238      C1239   1.408   1_455  A
C1239      C1240   1.399       .  A
C1239      F1243   1.358       .  S
C1240      H1244   1.083       .  S
C1245      C1246   1.407       .  A
C1245      C1250   1.400       .  A
C1245      H1255   1.083       .  S
C1246      C1251   1.494       .  S
C1246      C1247   1.409       .  A
C1247      C1248   1.401       .  A
C1247      F1252   1.357       .  S
C1248      C1249   1.407       .  A
C1248      H1253   1.083       .  S
C1249      C1250   1.408       .  A
C1250      F1254   1.357       .  S
C1251      C1256   1.409       .  A
C1251      C1260   1.407       .  A
C1256      C1257   1.401       .  A
C1256      F1261   1.357       .  S
C1257      C1258   1.405       .  A
C1257      H1262   1.083   1_565  S
C1258      C1259   1.407       .  A
C1259      C1260   1.401       .  A
C1259      F1263   1.357       .  S
C1260      H1264   1.083       .  S
C1265      C1266   1.404       .  A
C1265      C1270   1.399       .  A
C1265      H1275   1.083       .  S
C1266      C1271   1.493       .  S
C1266      C1267   1.409       .  A
C1267      C1268   1.404       .  A
C1267      F1272   1.357       .  S
C1268      C1269   1.408       .  A
C1268      H1273   1.083       .  S
C1269      C1270   1.413       .  A
C1270      F1274   1.357       .  S
C1271      C1276   1.409       .  A
C1271      C1280   1.405       .  A
C1276      C1277   1.401       .  A
C1276      F1281   1.357       .  S
C1277      C1278   1.406       .  A
C1277      H1282   1.083       .  S
C1278      C1279   1.412       .  A
C1279      C1280   1.402       .  A
C1279      F1283   1.358       .  S
C1280      H1284   1.083       .  S
C1285      C1286   1.402   1_655  A
C1285      C1290   1.398   1_655  A
C1285      H1295   1.084       .  S
C1286      C1291   1.482       .  S
C1286      C1287   1.407       .  A
C1287      C1288   1.405       .  A
C1287      F1292   1.357       .  S
C1288      C1289   1.405       .  A
C1288      H1293   1.083       .  S
C1289      C1290   1.405       .  A
C1290      F1294   1.358   1_455  S
C1291      C1296   1.404       .  A
C1291      C1300   1.406   1_455  A
C1296      C1297   1.397       .  A
C1296      F1301   1.358       .  S
C1297      C1298   1.405   1_455  A
C1297      H1302   1.084       .  S
C1298      C1299   1.407       .  A
C1299      C1300   1.405       .  A
C1299      F1303   1.357       .  S
C1300      H1304   1.083       .  S
C1305      C1306   1.401       .  A
C1305      C1310   1.393       .  A
C1305      H1315   1.083       .  S
C1306      C1311   1.481       .  S
C1306      C1307   1.407       .  A
C1307      C1308   1.400       .  A
C1307      F1312   1.357       .  S
C1308      C1309   1.406       .  A
C1308      H1313   1.083       .  S
C1309      C1310   1.412       .  A
C1310      F1314   1.358       .  S
C1311      C1316   1.406       .  A
C1311      C1320   1.407       .  A
C1316      C1317   1.393       .  A
C1316      F1321   1.357       .  S
C1317      C1318   1.403       .  A
C1317      H1322   1.084       .  S
C1318      C1319   1.405       .  A
C1319      C1320   1.399       .  A
C1319      F1323   1.358       .  S
C1320      H1324   1.083       .  S
C1325      C1326   1.402       .  A
C1325      C1330   1.394       .  A
C1325      H1335   1.084       .  S
C1326      C1331   1.478       .  S
C1326      C1327   1.407       .  A
C1327      C1328   1.402       .  A
C1327      F1332   1.357       .  S
C1328      C1329   1.402       .  A
C1328      H1333   1.083       .  S
C1329      C1330   1.404       .  A
C1330      F1334   1.358       .  S
C1331      C1336   1.407       .  A
C1331      C1340   1.405       .  A
C1336      C1337   1.396       .  A
C1336      F1341   1.357       .  S
C1337      C1338   1.399       .  A
C1337      H1342   1.084       .  S
C1338      C1339   1.404       .  A
C1339      C1340   1.400       .  A
C1339      F1343   1.358       .  S
C1340      H1344   1.083       .  S
C1345      C1346   1.402       .  A
C1345      C1350   1.401       .  A
C1345      H1355   1.083   1_655  S
C1346      C1351   1.480   1_655  S
C1346      C1347   1.404       .  A
C1347      C1348   1.399       .  A
C1347      F1352   1.357       .  S
C1348      C1349   1.407       .  A
C1348      H1353   1.083       .  S
C1349      C1350   1.412       .  A
C1350      F1354   1.357       .  S
C1351      C1356   1.404       .  A
C1351      C1360   1.401       .  A
C1356      C1357   1.403       .  A
C1356      F1361   1.357   1_455  S
C1357      C1358   1.408       .  A
C1357      H1362   1.083       .  S
C1358      C1359   1.412       .  A
C1359      C1360   1.397       .  A
C1359      F1363   1.357       .  S
C1360      H1364   1.084       .  S
C1365      C1366   1.405       .  A
C1365      C1370   1.400   1_455  A
C1365      H1375   1.083       .  S
C1366      C1371   1.490       .  S
C1366      C1367   1.410       .  A
C1367      C1368   1.402       .  A
C1367      F1372   1.357       .  S
C1368      C1369   1.403   1_455  A
C1368      H1373   1.083       .  S
C1369      C1370   1.407       .  A
C1370      F1374   1.358       .  S
C1371      C1376   1.408       .  A
C1371      C1380   1.406       .  A
C1376      C1377   1.401       .  A
C1376      F1381   1.357       .  S
C1377      C1378   1.405       .  A
C1377      H1382   1.083       .  S
C1378      C1379   1.409       .  A
C1379      C1380   1.400       .  A
C1379      F1383   1.358       .  S
C1380      H1384   1.083       .  S
C1385      C1386   1.404       .  A
C1385      C1390   1.394       .  A
C1385      H1395   1.083       .  S
C1386      C1391   1.489       .  S
C1386      C1387   1.411       .  A
C1387      C1388   1.401       .  A
C1387      F1392   1.357       .  S
C1388      C1389   1.404       .  A
C1388      H1393   1.083       .  S
C1389      C1390   1.409       .  A
C1390      F1394   1.358       .  S
C1391      C1396   1.411       .  A
C1391      C1400   1.403       .  A
C1396      C1397   1.402       .  A
C1396      F1401   1.357       .  S
C1397      C1398   1.405   1_545  A
C1397      H1402   1.083   1_545  S
C1398      C1399   1.410       .  A
C1399      C1400   1.394   1_565  A
C1399      F1403   1.358       .  S
C1400      H1404   1.083       .  S
C1405      C1406   1.403       .  A
C1405      C1410   1.402       .  A
C1405      H1415   1.083       .  S
C1406      C1411   1.481       .  S
C1406      C1407   1.404       .  A
C1407      C1408   1.396       .  A
C1407      F1412   1.358       .  S
C1408      C1409   1.407       .  A
C1408      H1413   1.083       .  S
C1409      C1410   1.411       .  A
C1410      F1414   1.357       .  S
C1411      C1416   1.406       .  A
C1411      C1420   1.403       .  A
C1416      C1417   1.399       .  A
C1416      F1421   1.357       .  S
C1417      C1418   1.405       .  A
C1417      H1422   1.083       .  S
C1418      C1419   1.409       .  A
C1419      C1420   1.399       .  A
C1419      F1423   1.358   1_455  S
C1420      H1424   1.083       .  S
C1425      C1426   1.404       .  A
C1425      C1430   1.403       .  A
C1425      H1435   1.083       .  S
C1426      C1431   1.486       .  S
C1426      C1427   1.407       .  A
C1427      C1428   1.397       .  A
C1427      F1432   1.358       .  S
C1428      C1429   1.406       .  A
C1428      H1433   1.083       .  S
C1429      C1430   1.412       .  A
C1430      F1434   1.357       .  S
C1431      C1436   1.408       .  A
C1431      C1440   1.402       .  A
C1436      C1437   1.403       .  A
C1436      F1441   1.357       .  S
C1437      C1438   1.406   1_545  A
C1437      H1442   1.083       .  S
C1438      C1439   1.412       .  A
C1439      C1440   1.398   1_565  A
C1439      F1443   1.358       .  S
C1440      H1444   1.083       .  S
C1445      C1446   1.403       .  A
C1445      C1450   1.398       .  A
C1445      H1455   1.083       .  S
C1446      C1451   1.483       .  S
C1446      C1447   1.406       .  A
C1447      C1448   1.401       .  A
C1447      F1452   1.358       .  S
C1448      C1449   1.408       .  A
C1448      H1453   1.083       .  S
C1449      C1450   1.411       .  A
C1450      F1454   1.357       .  S
C1451      C1456   1.406       .  A
C1451      C1460   1.403       .  A
C1456      C1457   1.399       .  A
C1456      F1461   1.358       .  S
C1457      C1458   1.407       .  A
C1457      H1462   1.083       .  S
C1458      C1459   1.410       .  A
C1459      C1460   1.399       .  A
C1459      F1463   1.357       .  S
C1460      H1464   1.083       .  S
C1465      C1466   1.406       .  A
C1465      C1470   1.402       .  A
C1465      H1475   1.083       .  S
C1466      C1471   1.487       .  S
C1466      C1467   1.407   1_455  A
C1467      C1468   1.403       .  A
C1467      F1472   1.357       .  S
C1468      C1469   1.403       .  A
C1468      H1473   1.083       .  S
C1469      C1470   1.404   1_655  A
C1470      F1474   1.358       .  S
C1471      C1476   1.403       .  A
C1471      C1480   1.409       .  A
C1476      C1477   1.393       .  A
C1476      F1481   1.358       .  S
C1477      C1478   1.407       .  A
C1477      H1482   1.083       .  S
C1478      C1479   1.408       .  A
C1479      C1480   1.410       .  A
C1479      F1483   1.357       .  S
C1480      H1484   1.083       .  S
C1485      C1486   1.401       .  A
C1485      C1490   1.396       .  A
C1485      H1495   1.084       .  S
C1486      C1491   1.475       .  S
C1486      C1487   1.404       .  A
C1487      C1488   1.396       .  A
C1487      F1492   1.357       .  S
C1488      C1489   1.406       .  A
C1488      H1493   1.083       .  S
C1489      C1490   1.412       .  A
C1490      F1494   1.358       .  S
C1491      C1496   1.404       .  A
C1491      C1500   1.403       .  A
C1496      C1497   1.392       .  A
C1496      F1501   1.358       .  S
C1497      C1498   1.404       .  A
C1497      H1502   1.084       .  S
C1498      C1499   1.410       .  A
C1499      C1500   1.400       .  A
C1499      F1503   1.358       .  S
C1500      H1504   1.083       .  S
C1505      C1506   1.408       .  A
C1505      C1510   1.406       .  A
C1505      H1515   1.083       .  S
C1506      C1511   1.491       .  S
C1506      C1507   1.406       .  A
C1507      C1508   1.398       .  A
C1507      F1512   1.358       .  S
C1508      C1509   1.407       .  A
C1508      H1513   1.083       .  S
C1509      C1510   1.409       .  A
C1510      F1514   1.357       .  S
C1511      C1516   1.410       .  A
C1511      C1520   1.404       .  A
C1516      C1517   1.405       .  A
C1516      F1521   1.357       .  S
C1517      C1518   1.403       .  A
C1517      H1522   1.083       .  S
C1518      C1519   1.407       .  A
C1519      C1520   1.400       .  A
C1519      F1523   1.358       .  S
C1520      H1524   1.083       .  S
C1525      C1526   1.402       .  A
C1525      C1530   1.399       .  A
C1525      H1535   1.084       .  S
C1526      C1531   1.481       .  S
C1526      C1527   1.405       .  A
C1527      C1528   1.403       .  A
C1527      F1532   1.357       .  S
C1528      C1529   1.407       .  A
C1528      H1533   1.083       .  S
C1529      C1530   1.411       .  A
C1530      F1534   1.358       .  S
C1531      C1536   1.404       .  A
C1531      C1540   1.405       .  A
C1536      C1537   1.398       .  A
C1536      F1541   1.358       .  S
C1537      C1538   1.405       .  A
C1537      H1542   1.084       .  S
C1538      C1539   1.406       .  A
C1539      C1540   1.404       .  A
C1539      F1543   1.357       .  S
C1540      H1544   1.083       .  S
C1545      C1546   1.404       .  A
C1545      C1550   1.397       .  A
C1545      H1555   1.083       .  S
C1546      C1551   1.484       .  S
C1546      C1547   1.410       .  A
C1547      C1548   1.398       .  A
C1547      F1552   1.357       .  S
C1548      C1549   1.400       .  A
C1548      H1553   1.084       .  S
C1549      C1550   1.406       .  A
C1550      F1554   1.358       .  S
C1551      C1556   1.407       .  A
C1551      C1560   1.406       .  A
C1556      C1557   1.396       .  A
C1556      F1561   1.357       .  S
C1557      C1558   1.403       .  A
C1557      H1562   1.083       .  S
C1558      C1559   1.406       .  A
C1559      C1560   1.399       .  A
C1559      F1563   1.358       .  S
C1560      H1564   1.083       .  S
C1565      C1566   1.402       .  A
C1565      C1570   1.396       .  A
C1565      H1575   1.084       .  S
C1566      C1571   1.483       .  S
C1566      C1567   1.408       .  A
C1567      C1568   1.403       .  A
C1567      F1572   1.357       .  S
C1568      C1569   1.403       .  A
C1568      H1573   1.083       .  S
C1569      C1570   1.407       .  A
C1570      F1574   1.358       .  S
C1571      C1576   1.405       .  A
C1571      C1580   1.406       .  A
C1576      C1577   1.397       .  A
C1576      F1581   1.358       .  S
C1577      C1578   1.405       .  A
C1577      H1582   1.084       .  S
C1578      C1579   1.407       .  A
C1579      C1580   1.402       .  A
C1579      F1583   1.357       .  S
C1580      H1584   1.083       .  S
C1585      C1586   1.407       .  A
C1585      C1590   1.400       .  A
C1585      H1595   1.083       .  S
C1586      C1591   1.493       .  S
C1586      C1587   1.409       .  A
C1587      C1588   1.401       .  A
C1587      F1592   1.357       .  S
C1588      C1589   1.406       .  A
C1588      H1593   1.083       .  S
C1589      C1590   1.408       .  A
C1590      F1594   1.358       .  S
C1591      C1596   1.407       .  A
C1591      C1600   1.409       .  A
C1596      C1597   1.394       .  A
C1596      F1601   1.358       .  S
C1597      C1598   1.407       .  A
C1597      H1602   1.083       .  S
C1598      C1599   1.409       .  A
C1599      C1600   1.406       .  A
C1599      F1603   1.357       .  S
C1600      H1604   1.083       .  S
C1605      C1606   1.405       .  A
C1605      C1610   1.409       .  A
C1605      H1615   1.083       .  S
C1606      C1611   1.479       .  S
C1606      C1607   1.400       .  A
C1607      C1608   1.392       .  A
C1607      F1612   1.358       .  S
C1608      C1609   1.408       .  A
C1608      H1613   1.083       .  S
C1609      C1610   1.412       .  A
C1610      F1614   1.357       .  S
C1611      C1616   1.406       .  A
C1611      C1620   1.400       .  A
C1616      C1617   1.406       .  A
C1616      F1621   1.357       .  S
C1617      C1618   1.407       .  A
C1617      H1622   1.083       .  S
C1618      C1619   1.409       .  A
C1619      C1620   1.395       .  A
C1619      F1623   1.358       .  S
C1620      H1624   1.084       .  S
C1625      C1626   1.405       .  A
C1625      C1630   1.399       .  A
C1625      H1635   1.083       .  S
C1626      C1631   1.486       .  S
C1626      C1627   1.406       .  A
C1627      C1628   1.399       .  A
C1627      F1632   1.357       .  S
C1628      C1629   1.407       .  A
C1628      H1633   1.083       .  S
C1629      C1630   1.409       .  A
C1630      F1634   1.357       .  S
C1631      C1636   1.407       .  A
C1631      C1640   1.405       .  A
C1636      C1637   1.400       .  A
C1636      F1641   1.357       .  S
C1637      C1638   1.406       .  A
C1637      H1642   1.083       .  S
C1638      C1639   1.408       .  A
C1639      C1640   1.398       .  A
C1639      F1643   1.358       .  S
C1640      H1644   1.083       .  S
C1645      C1646   1.406       .  A
C1645      C1650   1.399       .  A
C1645      H1655   1.083       .  S
C1646      C1651   1.484       .  S
C1646      C1647   1.405       .  A
C1647      C1648   1.397       .  A
C1647      F1652   1.357       .  S
C1648      C1649   1.407       .  A
C1648      H1653   1.083       .  S
C1649      C1650   1.408       .  A
C1650      F1654   1.358       .  S
C1651      C1656   1.405       .  A
C1651      C1660   1.405       .  A
C1656      C1657   1.397       .  A
C1656      F1661   1.357       .  S
C1657      C1658   1.407       .  A
C1657      H1662   1.083       .  S
C1658      C1659   1.411       .  A
C1659      C1660   1.400       .  A
C1659      F1663   1.357       .  S
C1660      H1664   1.083       .  S
C1665      C1666   1.407       .  A
C1665      C1670   1.407       .  A
C1665      H1675   1.083       .  S
C1666      C1671   1.487       .  S
C1666      C1667   1.404       .  A
C1667      C1668   1.399       .  A
C1667      F1672   1.358       .  S
C1668      C1669   1.407       .  A
C1668      H1673   1.084       .  S
C1669      C1670   1.407       .  A
C1670      F1674   1.357       .  S
C1671      C1676   1.408       .  A
C1671      C1680   1.402       .  A
C1676      C1677   1.406       .  A
C1676      F1681   1.357       .  S
C1677      C1678   1.407       .  A
C1677      H1682   1.083       .  S
C1678      C1679   1.411       .  A
C1679      C1680   1.400       .  A
C1679      F1683   1.358       .  S
C1680      H1684   1.083       .  S
C1685      C1686   1.401       .  A
C1685      C1690   1.393       .  A
C1685      H1695   1.083       .  S
C1686      C1691   1.486       .  S
C1686      C1687   1.409       .  A
C1687      C1688   1.404       .  A
C1687      F1692   1.357       .  S
C1688      C1689   1.408       .  A
C1688      H1693   1.083       .  S
C1689      C1690   1.411       .  A
C1690      F1694   1.357       .  S
C1691      C1696   1.409       .  A
C1691      C1700   1.403       .  A
C1696      C1697   1.400       .  A
C1696      F1701   1.357       .  S
C1697      C1698   1.405       .  A
C1697      H1702   1.083       .  S
C1698      C1699   1.411       .  A
C1699      C1700   1.398       .  A
C1699      F1703   1.358       .  S
C1700      H1704   1.083       .  S
C1705      C1706   1.401       .  A
C1705      C1710   1.399       .  A
C1705      H1715   1.084       .  S
C1706      C1711   1.483       .  S
C1706      C1707   1.406       .  A
C1707      C1708   1.405       .  A
C1707      F1712   1.357       .  S
C1708      C1709   1.408       .  A
C1708      H1713   1.083       .  S
C1709      C1710   1.413       .  A
C1710      F1714   1.358       .  S
C1711      C1716   1.404       .  A
C1711      C1720   1.406       .  A
C1716      C1717   1.398       .  A
C1716      F1721   1.358       .  S
C1717      C1718   1.405       .  A
C1717      H1722   1.084       .  S
C1718      C1719   1.406       .  A
C1719      C1720   1.405       .  A
C1719      F1723   1.357       .  S
C1720      H1724   1.083       .  S
C1725      C1726   1.405       .  A
C1725      C1730   1.405       .  A
C1725      H1735   1.083       .  S
C1726      C1731   1.490       .  S
C1726      C1727   1.407       .  A
C1727      C1728   1.398       .  A
C1727      F1732   1.358       .  S
C1728      C1729   1.406       .  A
C1728      H1733   1.083       .  S
C1729      C1730   1.412       .  A
C1730      F1734   1.357       .  S
C1731      C1736   1.409       .  A
C1731      C1740   1.404       .  A
C1736      C1737   1.404       .  A
C1736      F1741   1.357       .  S
C1737      C1738   1.407       .  A
C1737      H1742   1.083       .  S
C1738      C1739   1.408       .  A
C1739      C1740   1.398       .  A
C1739      F1743   1.358       .  S
C1740      H1744   1.083       .  S
C1745      C1746   1.401       .  A
C1745      C1750   1.397       .  A
C1745      H1755   1.083       .  S
C1746      C1751   1.476       .  S
C1746      C1747   1.404       .  A
C1747      C1748   1.396       .  A
C1747      F1752   1.357       .  S
C1748      C1749   1.405       .  A
C1748      H1753   1.083       .  S
C1749      C1750   1.412       .  A
C1750      F1754   1.358       .  S
C1751      C1756   1.404       .  A
C1751      C1760   1.402       .  A
C1756      C1757   1.398       .  A
C1756      F1761   1.358       .  S
C1757      C1758   1.408       .  A
C1757      H1762   1.083       .  S
C1758      C1759   1.409       .  A
C1759      C1760   1.396       .  A
C1759      F1763   1.357       .  S
C1760      H1764   1.083       .  S
C1765      C1766   1.403       .  A
C1765      C1770   1.399       .  A
C1765      H1775   1.083       .  S
C1766      C1771   1.489       .  S
C1766      C1767   1.410       .  A
C1767      C1768   1.405       .  A
C1767      F1772   1.357       .  S
C1768      C1769   1.404       .  A
C1768      H1773   1.083       .  S
C1769      C1770   1.407       .  A
C1770      F1774   1.358       .  S
C1771      C1776   1.406       .  A
C1771      C1780   1.407       .  A
C1776      C1777   1.399       .  A
C1776      F1781   1.357       .  S
C1777      C1778   1.406       .  A
C1777      H1782   1.083       .  S
C1778      C1779   1.408       .  A
C1779      C1780   1.405       .  A
C1779      F1783   1.357       .  S
C1780      H1784   1.083       .  S
C1785      C1786   1.407       .  A
C1785      C1790   1.404       .  A
C1785      H1795   1.083       .  S
C1786      C1791   1.493       .  S
C1786      C1787   1.407       .  A
C1787      C1788   1.397       .  A
C1787      F1792   1.358       .  S
C1788      C1789   1.407       .  A
C1788      H1793   1.083       .  S
C1789      C1790   1.410       .  A
C1790      F1794   1.357       .  S
C1791      C1796   1.408       .  A
C1791      C1800   1.406       .  A
C1796      C1797   1.402       .  A
C1796      F1801   1.357       .  S
C1797      C1798   1.407       .  A
C1797      H1802   1.083       .  S
C1798      C1799   1.410       .  A
C1799      C1800   1.400       .  A
C1799      F1803   1.358       .  S
C1800      H1804   1.083       .  S
C1805      C1806   1.404       .  A
C1805      C1810   1.397       .  A
C1805      H1815   1.083       .  S
C1806      C1811   1.489       .  S
C1806      C1807   1.408       .  A
C1807      C1808   1.402       .  A
C1807      F1812   1.357       .  S
C1808      C1809   1.408       .  A
C1808      H1813   1.083       .  S
C1809      C1810   1.411       .  A
C1810      F1814   1.358       .  S
C1811      C1816   1.408       .  A
C1811      C1820   1.405       .  A
C1816      C1817   1.400       .  A
C1816      F1821   1.357       .  S
C1817      C1818   1.406       .  A
C1817      H1822   1.083       .  S
C1818      C1819   1.410       .  A
C1819      C1820   1.400       .  A
C1819      F1823   1.358       .  S
C1820      H1824   1.083       .  S
C1825      C1826   1.404       .  A
C1825      C1830   1.400       .  A
C1825      H1835   1.083       .  S
C1826      C1831   1.486       .  S
C1826      C1827   1.409       .  A
C1827      C1828   1.402       .  A
C1827      F1832   1.357       .  S
C1828      C1829   1.404       .  A
C1828      H1833   1.083       .  S
C1829      C1830   1.406       .  A
C1830      F1834   1.358       .  S
C1831      C1836   1.405       .  A
C1831      C1840   1.408       .  A
C1836      C1837   1.395       .  A
C1836      F1841   1.358       .  S
C1837      C1838   1.406       .  A
C1837      H1842   1.083       .  S
C1838      C1839   1.407       .  A
C1839      C1840   1.406       .  A
C1839      F1843   1.357       .  S
C1840      H1844   1.083       .  S
C1845      C1846   1.404       .  A
C1845      C1850   1.398       .  A
C1845      H1855   1.083       .  S
C1846      C1851   1.490       .  S
C1846      C1847   1.408       .  A
C1847      C1848   1.404       .  A
C1847      F1852   1.357       .  S
C1848      C1849   1.408       .  A
C1848      H1853   1.083       .  S
C1849      C1850   1.411       .  A
C1850      F1854   1.357       .  S
C1851      C1856   1.408       .  A
C1851      C1860   1.406       .  A
C1856      C1857   1.401       .  A
C1856      F1861   1.357       .  S
C1857      C1858   1.406       .  A
C1857      H1862   1.083       .  S
C1858      C1859   1.409       .  A
C1859      C1860   1.401       .  A
C1859      F1863   1.357       .  S
C1860      H1864   1.083       .  S
C1865      C1866   1.404       .  A
C1865      C1870   1.397       .  A
C1865      H1875   1.083       .  S
C1866      C1871   1.488       .  S
C1866      C1867   1.407       .  A
C1867      C1868   1.403       .  A
C1867      F1872   1.357       .  S
C1868      C1869   1.408       .  A
C1868      H1873   1.083       .  S
C1869      C1870   1.410       .  A
C1870      F1874   1.358       .  S
C1871      C1876   1.406       .  A
C1871      C1880   1.406       .  A
C1876      C1877   1.398       .  A
C1876      F1881   1.358       .  S
C1877      C1878   1.408       .  A
C1877      H1882   1.083       .  S
C1878      C1879   1.408       .  A
C1879      C1880   1.402       .  A
C1879      F1883   1.357       .  S
C1880      H1884   1.083       .  S
C1885      C1886   1.405       .  A
C1885      C1890   1.395       .  A
C1885      H1895   1.083       .  S
C1886      C1891   1.485       .  S
C1886      C1887   1.409       .  A
C1887      C1888   1.399       .  A
C1887      F1892   1.357       .  S
C1888      C1889   1.405       .  A
C1888      H1893   1.083       .  S
C1889      C1890   1.406       .  A
C1890      F1894   1.358       .  S
C1891      C1896   1.408       .  A
C1891      C1900   1.406       .  A
C1896      C1897   1.394       .  A
C1896      F1901   1.357       .  S
C1897      C1898   1.404       .  A
C1897      H1902   1.083       .  S
C1898      C1899   1.409       .  A
C1899      C1900   1.400       .  A
C1899      F1903   1.358       .  S
C1900      H1904   1.083       .  S
C1905      C1906   1.406       .  A
C1905      C1910   1.402       .  A
C1905      H1915   1.083       .  S
C1906      C1911   1.486       .  S
C1906      C1907   1.406       .  A
C1907      C1908   1.399       .  A
C1907      F1912   1.358       .  S
C1908      C1909   1.406       .  A
C1908      H1913   1.083       .  S
C1909      C1910   1.408       .  A
C1910      F1914   1.357       .  S
C1911      C1916   1.410       .  A
C1911      C1920   1.403       .  A
C1916      C1917   1.405       .  A
C1916      F1921   1.357       .  S
C1917      C1918   1.404       .  A
C1917      H1922   1.083       .  S
C1918      C1919   1.404       .  A
C1919      C1920   1.396       .  A
C1919      F1923   1.358       .  S
C1920      H1924   1.083       .  S
C1925      C1926   1.403       .  A
C1925      C1930   1.400       .  A
C1925      H1935   1.083       .  S
C1926      C1931   1.480       .  S
C1926      C1927   1.405       .  A
C1927      C1928   1.398       .  A
C1927      F1932   1.358       .  S
C1928      C1929   1.405       .  A
C1928      H1933   1.080       .  S
C1929      C1930   1.410       .  A
C1930      F1934   1.357       .  S
C1931      C1936   1.405       .  A
C1931      C1940   1.402       .  A
C1936      C1937   1.401       .  A
C1936      F1941   1.357       .  S
C1937      C1938   1.409       .  A
C1937      H1942   1.083       .  S
C1938      C1939   1.410       .  A
C1939      C1940   1.396       .  A
C1939      F1943   1.358       .  S
C1940      H1944   1.084       .  S
C1945      C1946   1.400       .  A
C1945      C1950   1.385       .  A
C1945      H1955   1.084       .  S
C1946      C1951   1.477       .  S
C1946      C1947   1.409       .  A
C1947      C1948   1.404       .  A
C1947      F1952   1.357       .  S
C1948      C1949   1.403       .  A
C1948      H1953   1.083       .  S
C1949      C1950   1.405       .  A
C1950      F1954   1.356       .  S
C1951      C1956   1.409       .  A
C1951      C1960   1.404       .  A
C1956      C1957   1.396       .  A
C1956      F1961   1.358       .  S
C1957      C1958   1.398       .  A
C1957      H1962   1.084       .  S
C1958      C1959   1.401       .  A
C1959      C1960   1.395       .  A
C1959      F1963   1.358       .  S
C1960      H1964   1.083       .  S
C1965      C1966   1.407       .  A
C1965      C1970   1.404       .  A
C1965      H1975   1.083       .  S
C1966      C1971   1.480       .  S
C1966      C1967   1.404       .  A
C1967      C1968   1.394       .  A
C1967      F1972   1.358       .  S
C1968      C1969   1.405       .  A
C1968      H1973   1.084       .  S
C1969      C1970   1.405       .  A
C1970      F1974   1.357       .  S
C1971      C1976   1.407       .  A
C1971      C1980   1.403       .  A
C1976      C1977   1.401       .  A
C1976      F1981   1.358       .  S
C1977      C1978   1.405       .  A
C1977      H1982   1.083       .  S
C1978      C1979   1.406       .  A
C1979      C1980   1.397       .  A
C1979      F1983   1.358       .  S
C1980      H1984   1.083       .  S
C1985      C1986   1.406       .  A
C1985      C1990   1.401       .  A
C1985      H1995   1.083       .  S
C1986      C1991   1.490   1_556  S
C1986      C1987   1.407       .  A
C1987      C1988   1.399       .  A
C1987      F1992   1.358       .  S
C1988      C1989   1.408       .  A
C1988      H1993   1.083       .  S
C1989      C1990   1.408       .  A
C1990      F1994   1.357       .  S
C1991      C1996   1.407       .  A
C1991      C2000   1.405       .  A
C1996      C1997   1.400       .  A
C1996      F2001   1.357       .  S
C1997      C1998   1.408       .  A
C1997      H2002   1.083       .  S
C1998      C1999   1.411       .  A
C1999      C2000   1.400       .  A
C1999      F2003   1.357       .  S
C2000      H2004   1.083       .  S
C2005      C2006   1.405       .  A
C2005      C2010   1.401       .  A
C2005      H2015   1.083       .  S
C2006      C2011   1.487       .  S
C2006      C2007   1.409       .  A
C2007      C2008   1.402       .  A
C2007      F2012   1.358       .  S
C2008      C2009   1.403       .  A
C2008      H2013   1.084       .  S
C2009      C2010   1.403       .  A
C2010      F2014   1.357       .  S
C2011      C2016   1.406       .  A
C2011      C2020   1.408       .  A
C2016      C2017   1.396       .  A
C2016      F2021   1.358       .  S
C2017      C2018   1.405       .  A
C2017      H2022   1.084       .  S
C2018      C2019   1.407       .  A
C2019      C2020   1.407       .  A
C2019      F2023   1.357       .  S
C2020      H2024   1.083       .  S
C2025      C2026   1.403       .  A
C2025      C2030   1.398       .  A
C2025      H2035   1.083       .  S
C2026      C2031   1.480       .  S
C2026      C2027   1.406       .  A
C2027      C2028   1.397       .  A
C2027      F2032   1.357       .  S
C2028      C2029   1.405       .  A
C2028      H2033   1.083       .  S
C2029      C2030   1.410       .  A
C2030      F2034   1.358       .  S
C2031      C2036   1.405       .  A
C2031      C2040   1.404       .  A
C2036      C2037   1.393       .  A
C2036      F2041   1.358       .  S
C2037      C2038   1.406       .  A
C2037      H2042   1.083       .  S
C2038      C2039   1.410       .  A
C2039      C2040   1.401       .  A
C2039      F2043   1.357       .  S
C2040      H2044   1.083       .  S
C2045      C2046   1.408       .  A
C2045      C2050   1.407       .  A
C2045      H2055   1.083       .  S
C2046      C2051   1.488       .  S
C2046      C2047   1.405       .  A
C2047      C2048   1.396       .  A
C2047      F2052   1.358       .  S
C2048      C2049   1.407       .  A
C2048      H2053   1.084       .  S
C2049      C2050   1.406       .  A
C2050      F2054   1.357       .  S
C2051      C2056   1.409       .  A
C2051      C2060   1.404       .  A
C2056      C2057   1.403       .  A
C2056      F2061   1.357       .  S
C2057      C2058   1.404       .  A
C2057      H2062   1.083       .  S
C2058      C2059   1.409       .  A
C2059      C2060   1.401       .  A
C2059      F2063   1.358       .  S
C2060      H2064   1.083       .  S
C2065      C2066   1.406       .  A
C2065      C2070   1.402       .  A
C2065      H2075   1.083       .  S
C2066      C2071   1.483       .  S
C2066      C2067   1.408       .  A
C2067      C2068   1.398       .  A
C2067      F2072   1.358       .  S
C2068      C2069   1.402       .  A
C2068      H2073   1.084       .  S
C2069      C2070   1.404       .  A
C2070      F2074   1.357       .  S
C2071      C2076   1.408       .  A
C2071      C2080   1.404       .  A
C2076      C2077   1.402       .  A
C2076      F2081   1.357       .  S
C2077      C2078   1.402       .  A
C2077      H2082   1.084       .  S
C2078      C2079   1.403       .  A
C2079      C2080   1.397       .  A
C2079      F2083   1.358       .  S
C2080      H2084   1.083       .  S
C2085      C2086   1.405       .  A
C2085      C2090   1.402       .  A
C2085      H2095   1.083       .  S
C2086      C2091   1.488       .  S
C2086      C2087   1.406       .  A
C2087      C2088   1.400       .  A
C2087      F2092   1.357       .  S
C2088      C2089   1.406       .  A
C2088      H2093   1.083       .  S
C2089      C2090   1.410       .  A
C2090      F2094   1.358       .  S
C2091      C2096   1.407       .  A
C2091      C2100   1.405       .  A
C2096      C2097   1.398       .  A
C2096      F2101   1.358       .  S
C2097      C2098   1.407       .  A
C2097      H2102   1.083       .  S
C2098      C2099   1.411       .  A
C2099      C2100   1.404       .  A
C2099      F2103   1.357       .  S
C2100      H2104   1.083       .  S
C2105      C2106   1.409       .  A
C2105      C2110   1.408       .  A
C2105      H2115   1.083       .  S
C2106      C2111   1.497       .  S
C2106      C2107   1.407       .  A
C2107      C2108   1.398       .  A
C2107      F2112   1.358       .  S
C2108      C2109   1.409       .  A
C2108      H2113   1.083       .  S
C2109      C2110   1.410       .  A
C2110      F2114   1.357       .  S
C2111      C2116   1.409       .  A
C2111      C2120   1.409       .  A
C2116      C2117   1.403       .  A
C2116      F2121   1.357       .  S
C2117      C2118   1.408       .  A
C2117      H2122   1.083       .  S
C2118      C2119   1.407       .  A
C2119      C2120   1.402       .  A
C2119      F2123   1.357       .  S
C2120      H2124   1.083       .  S
C2125      C2126   1.405       .  A
C2125      C2130   1.399       .  A
C2125      H2135   1.083       .  S
C2126      C2131   1.492       .  S
C2126      C2127   1.411       .  A
C2127      C2128   1.404       .  A
C2127      F2132   1.357       .  S
C2128      C2129   1.404       .  A
C2128      H2133   1.083       .  S
C2129      C2130   1.406       .  A
C2130      F2134   1.358       .  S
C2131      C2136   1.407       .  A
C2131      C2140   1.410       .  A
C2136      C2137   1.397       .  A
C2136      F2141   1.358       .  S
C2137      C2138   1.405       .  A
C2137      H2142   1.084       .  S
C2138      C2139   1.405       .  A
C2139      C2140   1.406       .  A
C2139      F2143   1.357       .  S
C2140      H2144   1.083       .  S
C2145      C2146   1.406       .  A
C2145      C2150   1.404       .  A
C2145      H2155   1.083       .  S
C2146      C2151   1.491       .  S
C2146      C2147   1.408       .  A
C2147      C2148   1.395       .  A
C2147      F2152   1.358       .  S
C2148      C2149   1.406       .  A
C2148      H2153   1.083       .  S
C2149      C2150   1.411       .  A
C2150      F2154   1.357       .  S
C2151      C2156   1.409       .  A
C2151      C2160   1.404       .  A
C2156      C2157   1.403       .  A
C2156      F2161   1.357       .  S
C2157      C2158   1.406       .  A
C2157      H2162   1.083       .  S
C2158      C2159   1.411       .  A
C2159      C2160   1.397       .  A
C2159      F2163   1.358       .  S
C2160      H2164   1.083       .  S
C2165      C2166   1.404       .  A
C2165      C2170   1.400       .  A
C2165      H2175   1.083       .  S
C2166      C2171   1.489   1_556  S
C2166      C2167   1.407       .  A
C2167      C2168   1.401       .  A
C2167      F2172   1.358       .  S
C2168      C2169   1.408       .  A
C2168      H2173   1.083       .  S
C2169      C2170   1.411       .  A
C2170      F2174   1.357       .  S
C2171      C2176   1.408       .  A
C2171      C2180   1.404       .  A
C2176      C2177   1.401       .  A
C2176      F2181   1.357       .  S
C2177      C2178   1.406       .  A
C2177      H2182   1.083       .  S
C2178      C2179   1.410       .  A
C2179      C2180   1.400       .  A
C2179      F2183   1.358       .  S
C2180      H2184   1.083       .  S
C2185      C2186   1.404       .  A
C2185      C2190   1.398       .  A
C2185      H2195   1.083       .  S
C2186      C2191   1.478       .  S
C2186      C2187   1.405       .  A
C2187      C2188   1.395       .  A
C2187      F2192   1.358       .  S
C2188      C2189   1.405       .  A
C2188      H2193   1.083       .  S
C2189      C2190   1.407       .  A
C2190      F2194   1.357       .  S
C2191      C2196   1.405       .  A
C2191      C2200   1.402       .  A
C2196      C2197   1.400       .  A
C2196      F2201   1.357       .  S
C2197      C2198   1.408       .  A
C2197      H2202   1.083       .  S
C2198      C2199   1.410       .  A
C2199      C2200   1.393       .  A
C2199      F2203   1.358       .  S
C2200      H2204   1.084       .  S
C2205      C2206   1.401       .  A
C2205      C2210   1.396       .  A
C2205      H2215   1.084       .  S
C2206      C2211   1.481       .  S
C2206      C2207   1.408       .  A
C2207      C2208   1.406       .  A
C2207      F2212   1.357       .  S
C2208      C2209   1.405       .  A
C2208      H2213   1.083       .  S
C2209      C2210   1.407       .  A
C2210      F2214   1.358       .  S
C2211      C2216   1.406       .  A
C2211      C2220   1.405       .  A
C2216      C2217   1.399       .  A
C2216      F2221   1.358       .  S
C2217      C2218   1.402       .  A
C2217      H2222   1.084       .  S
C2218      C2219   1.405       .  A
C2219      C2220   1.402       .  A
C2219      F2223   1.358       .  S
C2220      H2224   1.083       .  S
C2225      C2226   1.401       .  A
C2225      C2230   1.400       .  A
C2225      H2235   1.083       .  S
C2226      C2231   1.481       .  S
C2226      C2227   1.405       .  A
C2227      C2228   1.405       .  A
C2227      F2232   1.357       .  S
C2228      C2229   1.408       .  A
C2228      H2233   1.083       .  S
C2229      C2230   1.410       .  A
C2230      F2234   1.358       .  S
C2231      C2236   1.401       .  A
C2231      C2240   1.406       .  A
C2236      C2237   1.395       .  A
C2236      F2241   1.358       .  S
C2237      C2238   1.408       .  A
C2237      H2242   1.083       .  S
C2238      C2239   1.409       .  A
C2239      C2240   1.408       .  A
C2239      F2243   1.357       .  S
C2240      H2244   1.083       .  S
C2245      C2246   1.408       .  A
C2245      C2250   1.402       .  A
C2245      H2255   1.083       .  S
C2246      C2251   1.480       .  S
C2246      C2247   1.405       .  A
C2247      C2248   1.393       .  A
C2247      F2252   1.358       .  S
C2248      C2249   1.401       .  A
C2248      H2253   1.082       .  S
C2249      C2250   1.402       .  A
C2250      F2254   1.357       .  S
C2251      C2256   1.405       .  A
C2251      C2260   1.408       .  A
C2256      C2257   1.392       .  A
C2256      F2261   1.358       .  S
C2257      C2258   1.402       .  A
C2257      H2262   1.084       .  S
C2258      C2259   1.404       .  A
C2259      C2260   1.404       .  A
C2259      F2263   1.357       .  S
C2260      H2264   1.083       .  S
C2265      C2266   1.405       .  A
C2265      C2270   1.399       .  A
C2265      H2275   1.083       .  S
C2266      C2271   1.487       .  S
C2266      C2267   1.406       .  A
C2267      C2268   1.399       .  A
C2267      F2272   1.357       .  S
C2268      C2269   1.407       .  A
C2268      H2273   1.083       .  S
C2269      C2270   1.410       .  A
C2270      F2274   1.358       .  S
C2271      C2276   1.408       .  A
C2271      C2280   1.405       .  A
C2276      C2277   1.399       .  A
C2276      F2281   1.358       .  S
C2277      C2278   1.406       .  A
C2277      H2282   1.083       .  S
C2278      C2279   1.409       .  A
C2279      C2280   1.401       .  A
C2279      F2283   1.357       .  S
C2280      H2284   1.083       .  S
C2285      C2286   1.406       .  A
C2285      C2290   1.403       .  A
C2285      H2295   1.083       .  S
C2286      C2291   1.481       .  S
C2286      C2287   1.403       .  A
C2287      C2288   1.393       .  A
C2287      F2292   1.358       .  S
C2288      C2289   1.408       .  A
C2288      H2293   1.083       .  S
C2289      C2290   1.410       .  A
C2290      F2294   1.357       .  S
C2291      C2296   1.403       .  A
C2291      C2300   1.405       .  A
C2296      C2297   1.397       .  A
C2296      F2301   1.358       .  S
C2297      C2298   1.408       .  A
C2297      H2302   1.083       .  S
C2298      C2299   1.407       .  A
C2299      C2300   1.400       .  A
C2299      F2303   1.357       .  S
C2300      H2304   1.083       .  S
C2305      C2306   1.404       .  A
C2305      C2310   1.401       .  A
C2305      H2315   1.083       .  S
C2306      C2311   1.496       .  S
C2306      C2307   1.411       .  A
C2307      C2308   1.409       .  A
C2307      F2312   1.357       .  S
C2308      C2309   1.405       .  A
C2308      H2313   1.083       .  S
C2309      C2310   1.409       .  A
C2310      F2314   1.358       .  S
C2311      C2316   1.407       .  A
C2311      C2320   1.409       .  A
C2316      C2317   1.402       .  A
C2316      F2321   1.357       .  S
C2317      C2318   1.406       .  A
C2317      H2322   1.083       .  S
C2318      C2319   1.408       .  A
C2319      C2320   1.408       .  A
C2319      F2323   1.357       .  S
C2320      H2324   1.083       .  S
C2325      C2326   1.404       .  A
C2325      C2330   1.400       .  A
C2325      H2335   1.083       .  S
C2326      C2331   1.489       .  S
C2326      C2327   1.408       .  A
C2327      C2328   1.402       .  A
C2327      F2332   1.357       .  S
C2328      C2329   1.407       .  A
C2328      H2333   1.083       .  S
C2329      C2330   1.410       .  A
C2330      F2334   1.358       .  S
C2331      C2336   1.407       .  A
C2331      C2340   1.406       .  A
C2336      C2337   1.397       .  A
C2336      F2341   1.358       .  S
C2337      C2338   1.408       .  A
C2337      H2342   1.083       .  S
C2338      C2339   1.410       .  A
C2339      C2340   1.403       .  A
C2339      F2343   1.357       .  S
C2340      H2344   1.083       .  S
C2345      C2346   1.406       .  A
C2345      C2350   1.401       .  A
C2345      H2355   1.083       .  S
C2346      C2351   1.493   1_554  S
C2346      C2347   1.408       .  A
C2347      C2348   1.401       .  A
C2347      F2352   1.357       .  S
C2348      C2349   1.408       .  A
C2348      H2353   1.083       .  S
C2349      C2350   1.411       .  A
C2350      F2354   1.357       .  S
C2351      C2356   1.408       .  A
C2351      C2360   1.407       .  A
C2356      C2357   1.400       .  A
C2356      F2361   1.358       .  S
C2357      C2358   1.408       .  A
C2357      H2362   1.083       .  S
C2358      C2359   1.409       .  A
C2359      C2360   1.402       .  A
C2359      F2363   1.357       .  S
C2360      H2364   1.083       .  S
C2365      C2366   1.401       .  A
C2365      C2370   1.395       .  A
C2365      H2375   1.084       .  S
C2366      C2371   1.475       .  S
C2366      C2367   1.404       .  A
C2367      C2368   1.398       .  A
C2367      F2372   1.357       .  S
C2368      C2369   1.406       .  A
C2368      H2373   1.083       .  S
C2369      C2370   1.409       .  A
C2370      F2374   1.358       .  S
C2371      C2376   1.403       .  A
C2371      C2380   1.403       .  A
C2376      C2377   1.393       .  A
C2376      F2381   1.358       .  S
C2377      C2378   1.407       .  A
C2377      H2382   1.083       .  S
C2378      C2379   1.409       .  A
C2379      C2380   1.399       .  A
C2379      F2383   1.357       .  S
C2380      H2384   1.083       .  S
C2385      C2386   1.407       .  A
C2385      C2390   1.400       .  A
C2385      H2395   1.083       .  S
C2386      C2391   1.485       .  S
C2386      C2387   1.408       .  A
C2387      C2388   1.399       .  A
C2387      F2392   1.357       .  S
C2388      C2389   1.401       .  A
C2388      H2393   1.084       .  S
C2389      C2390   1.402       .  A
C2390      F2394   1.358       .  S
C2391      C2396   1.409       .  A
C2391      C2400   1.403       .  A
C2396      C2397   1.406       .  A
C2396      F2401   1.357       .  S
C2397      C2398   1.404       .  A
C2397      H2402   1.083       .  S
C2398      C2399   1.407       .  A
C2399      C2400   1.394       .  A
C2399      F2403   1.359       .  S
C2400      H2404   1.084       .  S
C2405      C2406   1.405       .  A
C2405      C2410   1.405       .  A
C2405      H2415   1.083       .  S
C2406      C2411   1.478       .  S
C2406      C2407   1.403       .  A
C2407      C2408   1.395       .  A
C2407      F2412   1.358       .  S
C2408      C2409   1.406       .  A
C2408      H2413   1.084       .  S
C2409      C2410   1.407       .  A
C2410      F2414   1.357       .  S
C2411      C2416   1.405       .  A
C2411      C2420   1.401       .  A
C2416      C2417   1.402       .  A
C2416      F2421   1.357       .  S
C2417      C2418   1.406       .  A
C2417      H2422   1.083       .  S
C2418      C2419   1.410       .  A
C2419      C2420   1.398       .  A
C2419      F2423   1.358       .  S
C2420      H2424   1.084       .  S
C2425      C2426   1.406       .  A
C2425      C2430   1.400       .  A
C2425      H2435   1.083       .  S
C2426      C2431   1.490       .  S
C2426      C2427   1.408       .  A
C2427      C2428   1.401       .  A
C2427      F2432   1.357       .  S
C2428      C2429   1.406       .  A
C2428      H2433   1.083       .  S
C2429      C2430   1.408       .  A
C2430      F2434   1.358       .  S
C2431      C2436   1.409       .  A
C2431      C2440   1.402       .  A
C2436      C2437   1.406       .  A
C2436      F2441   1.357       .  S
C2437      C2438   1.408       .  A
C2437      H2442   1.083       .  S
C2438      C2439   1.412       .  A
C2439      C2440   1.395       .  A
C2439      F2443   1.357       .  S
C2440      H2444   1.084       .  S
C2445      C2446   1.405       .  A
C2445      C2450   1.398       .  A
C2445      H2455   1.083       .  S
C2446      C2451   1.482       .  S
C2446      C2447   1.407       .  A
C2447      C2448   1.401       .  A
C2447      F2452   1.358       .  S
C2448      C2449   1.403       .  A
C2448      H2453   1.084       .  S
C2449      C2450   1.402       .  A
C2450      F2454   1.358       .  S
C2451      C2456   1.408       .  A
C2451      C2460   1.402       .  A
C2456      C2457   1.407       .  A
C2456      F2461   1.357       .  S
C2457      C2458   1.406       .  A
C2457      H2462   1.083       .  S
C2458      C2459   1.406       .  A
C2459      C2460   1.392       .  A
C2459      F2463   1.358       .  S
C2460      H2464   1.084       .  S
C2465      C2466   1.410       .  A
C2465      C2470   1.405       .  A
C2465      H2475   1.083       .  S
C2466      C2471   1.494       .  S
C2466      C2467   1.407       .  A
C2467      C2468   1.394       .  A
C2467      F2472   1.357       .  S
C2468      C2469   1.407       .  A
C2468      H2473   1.083       .  S
C2469      C2470   1.409       .  A
C2470      F2474   1.357       .  S
C2471      C2476   1.408       .  A
C2471      C2480   1.408       .  A
C2476      C2477   1.399       .  A
C2476      F2481   1.357       .  S
C2477      C2478   1.408       .  A
C2477      H2482   1.083       .  S
C2478      C2479   1.407       .  A
C2479      C2480   1.401       .  A
C2479      F2483   1.357       .  S
C2480      H2484   1.083       .  S
C2485      C2486   1.402       .  A
C2485      C2490   1.393       .  A
C2485      H2495   1.083       .  S
C2486      C2491   1.486       .  S
C2486      C2487   1.410       .  A
C2487      C2488   1.402       .  A
C2487      F2492   1.357       .  S
C2488      C2489   1.405       .  A
C2488      H2493   1.083       .  S
C2489      C2490   1.412       .  A
C2490      F2494   1.358       .  S
C2491      C2496   1.410       .  A
C2491      C2500   1.404       .  A
C2496      C2497   1.399       .  A
C2496      F2501   1.357       .  S
C2497      C2498   1.403       .  A
C2497      H2502   1.083       .  S
C2498      C2499   1.409       .  A
C2499      C2500   1.396       .  A
C2499      F2503   1.358       .  S
C2500      H2504   1.083       .  S
C2505      C2506   1.402       .  A
C2505      C2510   1.396       .  A
C2505      H2515   1.084       .  S
C2506      C2511   1.484       .  S
C2506      C2507   1.408       .  A
C2507      C2508   1.404       .  A
C2507      F2512   1.357       .  S
C2508      C2509   1.406       .  A
C2508      H2513   1.083       .  S
C2509      C2510   1.410       .  A
C2510      F2514   1.358       .  S
C2511      C2516   1.406       .  A
C2511      C2520   1.407       .  A
C2516      C2517   1.397       .  A
C2516      F2521   1.358       .  S
C2517      C2518   1.403       .  A
C2517      H2522   1.084       .  S
C2518      C2519   1.404       .  A
C2519      C2520   1.403       .  A
C2519      F2523   1.357       .  S
C2520      H2524   1.083       .  S
C2525      C2526   1.404       .  A
C2525      C2530   1.398       .  A
C2525      H2535   1.083       .  S
C2526      C2531   1.488       .  S
C2526      C2527   1.408       .  A
C2527      C2528   1.403       .  A
C2527      F2532   1.357       .  S
C2528      C2529   1.407       .  A
C2528      H2533   1.083       .  S
C2529      C2530   1.409       .  A
C2530      F2534   1.357       .  S
C2531      C2536   1.406       .  A
C2531      C2540   1.406       .  A
C2536      C2537   1.395       .  A
C2536      F2541   1.358       .  S
C2537      C2538   1.406       .  A
C2537      H2542   1.083       .  S
C2538      C2539   1.411       .  A
C2539      C2540   1.405       .  A
C2539      F2543   1.357       .  S
C2540      H2544   1.083       .  S
C2545      C2546   1.404       .  A
C2545      C2550   1.403       .  A
C2545      H2555   1.083       .  S
C2546      C2551   1.485       .  S
C2546      C2547   1.406       .  A
C2547      C2548   1.396       .  A
C2547      F2552   1.358       .  S
C2548      C2549   1.406       .  A
C2548      H2553   1.083       .  S
C2549      C2550   1.412       .  A
C2550      F2554   1.357       .  S
C2551      C2556   1.408       .  A
C2551      C2560   1.403       .  A
C2556      C2557   1.402       .  A
C2556      F2561   1.358       .  S
C2557      C2558   1.406       .  A
C2557      H2562   1.083       .  S
C2558      C2559   1.408       .  A
C2559      C2560   1.397       .  A
C2559      F2563   1.358       .  S
C2560      H2564   1.083       .  S
C2565      C2566   1.405       .  A
C2565      C2570   1.401       .  A
C2565      H2575   1.083       .  S
C2566      C2571   1.485   1_554  S
C2566      C2567   1.405       .  A
C2567      C2568   1.396       .  A
C2567      F2572   1.357       .  S
C2568      C2569   1.405       .  A
C2568      H2573   1.083       .  S
C2569      C2570   1.411       .  A
C2570      F2574   1.358       .  S
C2571      C2576   1.405       .  A
C2571      C2580   1.404       .  A
C2576      C2577   1.399       .  A
C2576      F2581   1.357       .  S
C2577      C2578   1.408       .  A
C2577      H2582   1.083       .  S
C2578      C2579   1.411       .  A
C2579      C2580   1.399       .  A
C2579      F2583   1.357       .  S
C2580      H2584   1.083       .  S
C2585      C2586   1.406       .  A
C2585      C2590   1.398       .  A
C2585      H2595   1.083       .  S
C2586      C2591   1.480       .  S
C2586      C2587   1.409       .  A
C2587      C2588   1.397       .  A
C2587      F2592   1.358       .  S
C2588      C2589   1.400       .  A
C2588      H2593   1.084       .  S
C2589      C2590   1.401       .  A
C2590      F2594   1.357       .  S
C2591      C2596   1.408       .  A
C2591      C2600   1.401       .  A
C2596      C2597   1.404       .  A
C2596      F2601   1.357       .  S
C2597      C2598   1.405       .  A
C2597      H2602   1.083       .  S
C2598      C2599   1.407       .  A
C2599      C2600   1.390       .  A
C2599      F2603   1.357       .  S
C2600      H2604   1.084       .  S
C2605      C2606   1.402       .  A
C2605      C2610   1.394       .  A
C2605      H2615   1.083       .  S
C2606      C2611   1.476       .  S
C2606      C2607   1.405       .  A
C2607      C2608   1.397       .  A
C2607      F2612   1.358       .  S
C2608      C2609   1.406       .  A
C2608      H2613   1.083       .  S
C2609      C2610   1.409       .  A
C2610      F2614   1.358       .  S
C2611      C2616   1.404       .  A
C2611      C2620   1.404       .  A
C2616      C2617   1.391       .  A
C2616      F2621   1.358       .  S
C2617      C2618   1.404       .  A
C2617      H2622   1.083       .  S
C2618      C2619   1.409       .  A
C2619      C2620   1.400       .  A
C2619      F2623   1.357       .  S
C2620      H2624   1.084       .  S
