geometry optimzed in LAMMPS
_audit_creation_date              2020-12-01 
_audit_creation_method            'lammps2cif' 
_symmetry_space_group_name_H-M    'P1' 
_symmetry_Int_Tables_number       1 
_symmetry_cell_setting            triclinic 
loop_ 
_symmetry_equiv_pos_as_xyz 
  x,y,z 
_cell_length_a                    31.02325486 
_cell_length_b                    30.603294706086615 
_cell_length_c                    55.897810619041714 
_cell_angle_alpha                 90.40063618233962 
_cell_angle_beta                  89.87599482340173 
_cell_angle_gamma                 119.90099097512783 
loop_ 
_atom_site_label 
_atom_site_type_symbol 
_atom_site_fract_x 
_atom_site_fract_y 
_atom_site_fract_z 
_atom_site_charge 
O1          O  0.93056004  0.36217995  0.74978575    -0.89000
C2          C  0.97428157  0.29107094  0.70249806     0.87000
Mg3        Mg  0.87608852  0.38136342  0.74284154     1.58100
O4          O  0.04482307  0.42281680  0.70991330    -0.88700
O5          O  0.00635964  0.39981195  0.76317892    -0.76100
C6          C  0.90585848  0.45171597  0.62704271     0.92100
O7          O  0.85893701  0.27590957  0.71252898    -0.75900
O8          O  0.86962321  0.43428592  0.64196310    -0.83400
Mg9        Mg  0.91097228  0.28532916  0.74352070     1.58000
C10         C  0.10433588  0.49636418  0.64621448     0.92000
O11         O  0.95932235  0.28823684  0.77612672    -0.81700
H12         H  0.08612277  0.48583202  0.72902319    -0.07000
C13         C  0.95088937  0.36672049  0.65374841     0.86900
O14         O  0.93267762  0.45977223  0.72920521    -0.76200
O15         O  0.97307785  0.31562483  0.71993101    -0.88900
O16         O  0.10723856  0.48015782  0.66654067    -0.81700
C17         C  0.12236764  0.37067592  0.70739272     0.92100
C18         C  0.00376916  0.29668259  0.77887971     0.92000
Mg19       Mg  0.00011001  0.47817540  0.66650835     1.58000
O20         O  0.95012500  0.46434670  0.63347394    -0.81700
O21         O  0.05114012  0.49534507  0.70035698    -0.75900
O22         O  0.07847243  0.33966527  0.71314058    -0.81700
O23         O  0.84165896  0.25324239  0.76689206    -0.83400
O24         O  0.81552473  0.42168087  0.69926276    -0.81800
C25         C  0.06160473  0.46839076  0.71394409     0.86400
O26         O  0.93759047  0.45620066  0.68997306    -0.88900
O27         O  0.98560400  0.39994102  0.66646224    -0.89000
O28         O  0.90658331  0.35880012  0.65556653    -0.76100
Mg29       Mg  0.04077568  0.36998375  0.73616547     1.58000
O30         O  0.12853946  0.40090427  0.69059421    -0.83400
H31         H  0.95048962  0.40510365  0.77937123    -0.07200
O32         O  0.86477627  0.34973376  0.70756018    -0.88700
H33         H  0.81690418  0.28862748  0.68894939    -0.07000
H34         H  0.97280773  0.52085591  0.70837532    -0.07200
C35         C  0.84521029  0.30426912  0.70271138     0.86400
C36         C  0.96152636  0.38921042  0.76487566     0.87000
C37         C  0.94778611  0.48057839  0.70894347     0.87000
H38         H  0.95881412  0.34427187  0.64134662    -0.07200
O39         O  0.00282648  0.31282278  0.68475904    -0.76200
Mg40       Mg  0.86652230  0.39379414  0.67759515     1.58000
H41         H  0.95146664  0.25041726  0.70251912    -0.07200
C42         C  0.80842130  0.26614982  0.76745451     0.92000
O43         O  0.81952981  0.40135367  0.73714987    -0.83400
C44         C  0.80089019  0.41593102  0.72128362     0.92100
O45         O  0.03502866  0.31399313  0.76215345    -0.83400
Mg46       Mg  0.05572070  0.39796921  0.67625762     1.58200
O47         O  0.81555078  0.30741366  0.75864689    -0.81700
O48         O  0.06580641  0.49864923  0.64054310    -0.83400
O49         O  0.92885673  0.59955055  0.40240650    -0.89000
C50         C  0.98075145  0.71506153  0.45055926     0.87000
Mg51       Mg  0.87264129  0.52533625  0.40933416     1.58100
O52         O  0.04537225  0.64885798  0.44067879    -0.88700
O53         O  0.00373443  0.63590363  0.38795865    -0.76100
C54         C  0.90734365  0.48487751  0.52460216     0.92100
O55         O  0.86242383  0.61552981  0.44179547    -0.75900
O56         O  0.87039951  0.46357327  0.51009779    -0.83400
Mg57       Mg  0.91327204  0.65881874  0.41063118     1.58000
C58         C  0.10380520  0.63094882  0.50355510     0.92000
O59         O  0.95965628  0.70724628  0.37836805    -0.81700
H60         H  0.08369254  0.62560746  0.42050670    -0.07000
C61         C  0.95527632  0.61379928  0.49742333     0.86900
O62         O  0.92822301  0.50140682  0.42142224    -0.76200
O63         O  0.97694032  0.68854923  0.43297576    -0.88900
O64         O  0.10748599  0.64960012  0.48304772    -0.81700
C65         C  0.12737978  0.77843310  0.44371203     0.92100
C66         C  0.00419736  0.74280213  0.37494514     0.92000
Mg67       Mg  0.99924510  0.54770225  0.48346118     1.58000
O68         O  0.95105906  0.51489810  0.51697490    -0.81700
O69         O  0.04905270  0.58068586  0.44916722    -0.75900
O70         O  0.08357584  0.76685617  0.43871732    -0.81700
O71         O  0.84362681  0.62402520  0.38806995    -0.83400
O72         O  0.81539593  0.42514181  0.45308582    -0.81800
C73         C  0.06022870  0.61889349  0.43593008     0.86400
O74         O  0.93579230  0.50923045  0.46065643    -0.88900
O75         O  0.98819803  0.61367145  0.48410231    -0.89000
O76         O  0.91031364  0.57797781  0.49645963    -0.76100
Mg77       Mg  0.04242688  0.69950017  0.41523731     1.58000
O78         O  0.13368068  0.75334258  0.45991467    -0.83400
H79         H  0.94505250  0.57638985  0.37185621    -0.07200
O80         O  0.86474854  0.54541894  0.44521433    -0.88700
H81         H  0.81991708  0.56019667  0.46513495    -0.07000
H82         H  0.96795383  0.47848116  0.44112877    -0.07200
C83         C  0.84732764  0.57254605  0.45100766     0.86400
C84         C  0.95817949  0.60292744  0.38662906     0.87000
C85         C  0.94401653  0.49478709  0.44128678     0.87000
H86         H  0.96536523  0.64504332  0.50966871    -0.07200
O87         O  0.01006097  0.72076424  0.46777203    -0.76200
Mg88       Mg  0.86718729  0.50254881  0.47465503     1.58000
H89         H  0.95964326  0.73448753  0.45110804    -0.07200
C90         C  0.80875497  0.57832350  0.38664505     0.92000
O91         O  0.81491491  0.44705814  0.41496336    -0.83400
C92         C  0.79923352  0.41450905  0.43135752     0.92100
O93         O  0.03855872  0.75162512  0.38965785    -0.83400
Mg94       Mg  0.05980612  0.68463693  0.47457036     1.58200
O95         O  0.81305711  0.54196877  0.39489817    -0.81700
O96         O  0.06511233  0.59005542  0.50906828    -0.83400
O97         O  0.70451096  0.14557257  0.07031171    -0.89000
C98         C  0.77587486  0.10163960  0.11688280     0.87000
Mg99       Mg  0.67851259  0.19548386  0.07863182     1.58100
O100        O  0.64739957  0.02851943  0.10556028    -0.88700
O101        O  0.67580717  0.07260151  0.05297068    -0.76100
C102        C  0.59610106  0.13955213  0.19252447     0.92100
O103        O  0.78030426  0.21560753  0.11106855    -0.75900
O104        O  0.60887396  0.17780774  0.17897918    -0.83400
Mg105      Mg  0.78057917  0.16980898  0.07854161     1.58000
C106        C  0.56574222  0.94797863  0.16534638     0.92000
O107        O  0.78830236  0.12887324  0.04520337    -0.81700
H108        H  0.58908680  0.97894384  0.08503077    -0.07000
C109        C  0.68954308  0.11048239  0.16497793     0.86900
O110        O  0.60152047  0.13110621  0.08917523    -0.76200
O111        O  0.75322714  0.10330297  0.09898295    -0.88900
O112        O  0.58910606  0.95195183  0.14617908    -0.81700
C113        C  0.70673540  0.95326974  0.10696270     0.92100
C114        C  0.78354647  0.08623758  0.03925552     0.92000
Mg115      Mg  0.57942207  0.05332369  0.14916736     1.58000
O116        O  0.58714662  0.09728671  0.18375362    -0.81700
O117        O  0.56946957  0.00653709  0.11391886    -0.75900
O118        O  0.73574689  0.99852551  0.10170378    -0.81700
O119        O  0.80828322  0.24142533  0.05734841    -0.83400
O120        O  0.61969676  0.23573506  0.12305180    -0.81800
C121        C  0.60139696  0.00328820  0.10066093     0.86400
O122        O  0.60050872  0.11900781  0.12802414    -0.88900
O123        O  0.65896928  0.07507561  0.15157213    -0.89000
O124        O  0.69365171  0.15405181  0.16446448    -0.76100
Mg125      Mg  0.70485952  0.03652639  0.07913052     1.58000
O126        O  0.67542241  0.94399975  0.12349797    -0.83400
H127        H  0.66766371  0.12927480  0.03919373    -0.07200
O128        O  0.70457958  0.20341107  0.11457141    -0.88700
H129        H  0.76047331  0.25142384  0.13562694    -0.07000
H130        H  0.53982979  0.08262055  0.10759278    -0.07200
C131        C  0.74876231  0.22506559  0.12077351     0.86400
C132        C  0.68248101  0.11685888  0.05344881     0.87000
C133        C  0.57891131  0.11055794  0.10847969     0.87000
H134        H  0.71307720  0.10376860  0.17691814    -0.07200
O135        O  0.75340546  0.07045436  0.13373767    -0.76200
Mg136      Mg  0.65469067  0.19098447  0.14369764     1.58000
H137        H  0.81563192  0.12674097  0.11811583    -0.07200
C138        C  0.79289994  0.27296594  0.05669443     0.92000
O139        O  0.64939792  0.24586831  0.08580581    -0.83400
C140        C  0.62597474  0.25469549  0.10188068     0.92100
O141        O  0.76308984  0.04857816  0.05298501    -0.83400
Mg142      Mg  0.66984419  0.01103199  0.13981452     1.58200
O143        O  0.75122264  0.26360883  0.06542756    -0.81700
O144        O  0.55883343  0.98367858  0.17228460    -0.83400
O145        O  0.44141259  0.11703665  0.41596969    -0.89000
C146        C  0.33122334  0.06311646  0.36669910     0.87000
Mg147      Mg  0.51440006  0.17362617  0.40911054     1.58100
O148        O  0.39770838  0.00031094  0.37915263    -0.88700
O149        O  0.40515142  0.04246286  0.43156764    -0.76100
C150        C  0.56398261  0.13802268  0.29554132     0.92100
O151        O  0.42697117  0.18359742  0.37589054    -0.75900
O152        O  0.58111294  0.17598039  0.30987213    -0.83400
Mg153      Mg  0.38333827  0.13296475  0.40712130     1.58000
C154        C  0.41898472  0.93628795  0.31861781     0.92000
O155        O  0.33488356  0.08582379  0.43935288    -0.81700
H156        H  0.42156864  0.96462391  0.40068464    -0.07000
C157        C  0.43412992  0.08751670  0.32071298     0.86900
O158        O  0.53987928  0.11817561  0.39803329    -0.76200
O159        O  0.35553002  0.06769460  0.38503780    -0.88900
O160        O  0.40107364  0.93557581  0.33898995    -0.81700
C161        C  0.27027748  0.91481375  0.37501825     0.92100
C162        C  0.29984956  0.04060309  0.44281518     0.92000
Mg163      Mg  0.49969535  0.04531596  0.33668554     1.58000
O164        O  0.53443467  0.09311620  0.30268020    -0.81700
O165        O  0.46616207  0.99766196  0.37179059    -0.75900
O166        O  0.28064099  0.95940520  0.37886699    -0.81700
O167        O  0.41680253  0.20552369  0.42933761    -0.83400
O168        O  0.61737637  0.23583939  0.36622500    -0.81800
C169        C  0.42799810  0.98679050  0.38476002     0.86400
O170        O  0.53630230  0.11128110  0.35872958    -0.88900
O171        O  0.43415060  0.05535899  0.33478122    -0.89000
O172        O  0.46841141  0.13353804  0.32173605    -0.76100
Mg173      Mg  0.34480541  0.00226064  0.40340633     1.58000
O174        O  0.29633372  0.90796873  0.35958071    -0.83400
H175        H  0.46295049  0.10329332  0.44741385    -0.07200
O176        O  0.49613112  0.18092965  0.37305704    -0.88700
H177        H  0.48224220  0.22584360  0.35261977    -0.07000
H178        H  0.56623954  0.07990343  0.37905858    -0.07200
C179        C  0.46959083  0.19846361  0.36688124     0.86400
C180        C  0.43754589  0.08870757  0.43242153     0.87000
C181        C  0.54924868  0.10332284  0.37842327     0.87000
H182        H  0.40423535  0.07591973  0.30785150    -0.07200
O183        O  0.32762863  0.03303140  0.34987693    -0.76200
Mg184      Mg  0.54119533  0.17967017  0.34434391     1.58000
H185        H  0.31188203  0.08419532  0.36513204    -0.07200
C186        C  0.46236122  0.23999764  0.43046833     0.92000
O187        O  0.59012672  0.23241790  0.40342179    -0.83400
C188        C  0.62426651  0.25196799  0.38807475     0.92100
O189        O  0.29088218  0.00573085  0.42792521    -0.83400
Mg190      Mg  0.36444516  0.98290394  0.34491024     1.58200
O191        O  0.49732010  0.23342025  0.42282619    -0.81700
O192        O  0.45878118  0.97523948  0.31208029    -0.83400
O193        O  0.60533170  0.70304891  0.23514840    -0.89000
C194        C  0.71720929  0.77100599  0.28416419     0.87000
Mg195      Mg  0.53048905  0.68159780  0.24144543     1.58100
O196        O  0.66060266  0.64043922  0.27282751    -0.88700
O197        O  0.64771059  0.66999871  0.22064665    -0.76100
C198        C  0.49055552  0.60125829  0.35606433     0.92100
O199        O  0.61390827  0.78375919  0.27434126    -0.75900
O200        O  0.46839780  0.61608679  0.34158099    -0.83400
Mg201      Mg  0.66006751  0.77922575  0.24337333     1.58000
C202        C  0.64437721  0.56122300  0.33424764     0.92000
O203        O  0.70919011  0.78176464  0.21094693    -0.81700
H204        H  0.64148984  0.58040177  0.25163611    -0.07000
C205        C  0.61624414  0.68879196  0.33001948     0.86900
O206        O  0.51090029  0.60218144  0.25295032    -0.76200
O207        O  0.69264623  0.74800572  0.26630402    -0.88900
O208        O  0.66287303  0.57859446  0.31403621    -0.81700
C209        C  0.78904129  0.69279423  0.27752035     0.92100
C210        C  0.74685154  0.77566024  0.20822473     0.92000
Mg211      Mg  0.55845862  0.57844132  0.31459315     1.58000
O212        O  0.52271880  0.59011403  0.34838430    -0.81700
O213        O  0.59500385  0.56636345  0.28001268    -0.75900
O214        O  0.77694071  0.72505729  0.27214335    -0.81700
O215        O  0.62235775  0.81138330  0.22033653    -0.83400
O216        O  0.42784745  0.62912749  0.28366874    -0.81800
C217        C  0.63295814  0.59547373  0.26731134     0.86400
O218        O  0.51831391  0.60186478  0.29209801    -0.88900
O219        O  0.61960036  0.65750897  0.31631395    -0.89000
O220        O  0.57908008  0.69583272  0.32878643    -0.76100
Mg221      Mg  0.70993218  0.69715332  0.24844795     1.58000
O222        O  0.76401216  0.66126348  0.29361629    -0.83400
H223        H  0.58641167  0.66386229  0.20441923    -0.07200
O224        O  0.54719969  0.70906199  0.27740197    -0.88700
H225        H  0.55756797  0.76789005  0.29744616    -0.07000
H226        H  0.49134915  0.53918754  0.27221566    -0.07200
C227        C  0.57168505  0.75399353  0.28337717     0.86400
C228        C  0.61197593  0.67872293  0.21934093     0.87000
C229        C  0.50535107  0.57938499  0.27263047     0.87000
H230        H  0.64571851  0.71040380  0.34275926    -0.07200
O231        O  0.72403167  0.74766540  0.30123842    -0.76200
Mg232      Mg  0.50526944  0.66051027  0.30630015     1.58000
H233        H  0.73400425  0.81159990  0.28507422    -0.07200
C234        C  0.57645624  0.79822624  0.21891951     0.92000
O235        O  0.45216345  0.65770073  0.24667541    -0.83400
C236        C  0.41800297  0.63610343  0.26199664     0.92100
O237        O  0.76051988  0.75713089  0.22453379    -0.83400
Mg238      Mg  0.69280808  0.66161441  0.30722846     1.58200
O239        O  0.54214093  0.75660930  0.22708500    -0.81700
O240        O  0.60219734  0.55546876  0.33976838    -0.83400
O241        O  0.34690266  0.45340653  0.57640429    -0.89000
C242        C  0.28360085  0.34308955  0.52593881     0.87000
Mg243      Mg  0.36805518  0.52910189  0.57143159     1.58100
O244        O  0.40989703  0.39699943  0.54070336    -0.88700
O245        O  0.37643372  0.40855455  0.59176055    -0.76100
C246        C  0.46493852  0.57912741  0.45975086     0.92100
O247        O  0.27128492  0.44661365  0.53585369    -0.75900
O248        O  0.44711263  0.59909632  0.47412708    -0.83400
Mg249      Mg  0.27255896  0.39867610  0.56698810     1.58000
C250        C  0.49436832  0.41419381  0.48188343     0.92000
O251        O  0.27175090  0.35221099  0.59998155    -0.81700
H252        H  0.46628215  0.41545905  0.56349765    -0.07000
C253        C  0.37154289  0.44841016  0.48230003     0.86900
O254        O  0.44793633  0.54955498  0.56173407    -0.76200
O255        O  0.30471726  0.36643356  0.54442550    -0.88900
O256        O  0.47545230  0.39737339  0.50201329    -0.81700
C257        C  0.35735801  0.26788707  0.53406757     0.92100
C258        C  0.27758275  0.31420414  0.60313234     0.92000
Mg259      Mg  0.47794670  0.50306133  0.50038680     1.58000
O260        O  0.47365015  0.54441852  0.46656478    -0.81700
O261        O  0.48399731  0.46348328  0.53533976    -0.75900
O262        O  0.32537355  0.28071118  0.53823438    -0.81700
O263        O  0.23801688  0.43475983  0.58939304    -0.83400
O264        O  0.42746058  0.63664280  0.53212523    -0.81800
C265        C  0.45351512  0.42471458  0.54738389     0.86400
O266        O  0.45363513  0.54407350  0.52267979    -0.88900
O267        O  0.39953958  0.44303301  0.49698740    -0.89000
O268        O  0.36550843  0.48669515  0.48348856    -0.76100
Mg269      Mg  0.35086605  0.34602400  0.56342605     1.58000
O270        O  0.39030754  0.29327634  0.51864377    -0.83400
H271        H  0.38338661  0.47163670  0.60766239    -0.07200
O272        O  0.34544600  0.51461080  0.53482947    -0.88700
H273        H  0.29006090  0.50483631  0.51314724    -0.07000
H274        H  0.51250978  0.56951392  0.54436095    -0.07200
C275        C  0.30191349  0.48989126  0.52761412     0.86400
C276        C  0.36926376  0.44581896  0.59262999     0.87000
C277        C  0.47307403  0.55577841  0.54276929     0.87000
H278        H  0.35194495  0.41978867  0.46873337    -0.07200
O279        O  0.30793745  0.33671908  0.50917860    -0.76200
Mg280      Mg  0.39806497  0.55947605  0.50766906     1.58000
H281        H  0.24379508  0.32702955  0.52418384    -0.07200
C282        C  0.24980995  0.48087990  0.59106639     0.92000
O283        O  0.39227188  0.60850208  0.56773416    -0.83400
C284        C  0.41719956  0.64460608  0.55366444     0.92100
O285        O  0.28709924  0.29391489  0.58579970    -0.83400
Mg286      Mg  0.39310960  0.36733038  0.50563501     1.58200
O287        O  0.29178507  0.51637503  0.58403954    -0.81700
O288        O  0.50088991  0.45676066  0.47532399    -0.83400
O289        O  0.12716560  0.46157785  0.90396000    -0.89000
C290        C  0.07391074  0.34653391  0.95165185     0.87000
Mg291      Mg  0.18110950  0.53665287  0.91090944     1.58100
O292        O  0.01170393  0.41466344  0.94092310    -0.88700
O293        O  0.05356687  0.42416971  0.88793824    -0.76100
C294        C  0.13732684  0.57843234  0.02500689     0.92100
O295        O  0.19169899  0.44981041  0.94520234    -0.75900
O296        O  0.17452013  0.60135811  0.01079865    -0.83400
Mg297      Mg  0.14435625  0.40410658  0.91330212     1.58000
C298        C  0.94210237  0.42905759  0.00267211     0.92000
O299        O  0.10076904  0.35434665  0.88083195    -0.81700
H300        H  0.96449403  0.42797834  0.92116284    -0.07000
C301        C  0.09645507  0.45131289  0.99909494     0.86900
O302        O  0.12230799  0.55779443  0.92155896    -0.76200
O303        O  0.07811371  0.37211661  0.93379573    -0.88900
O304        O  0.94132450  0.40711860  0.98325240    -0.81700
C305        C  0.92736649  0.28068810  0.94376352     0.92100
C306        C  0.05668950  0.32019999  0.87502759     0.92000
Mg307      Mg  0.04742757  0.51251160  0.98327247     1.58000
O308        O  0.09441805  0.54702449  0.01686159    -0.81700
O309        O  0.99710382  0.47683607  0.94919408    -0.75900
O310        O  0.97054327  0.29184508  0.93737714    -0.81700
O311        O  0.21693412  0.44075297  0.89231184    -0.83400
O312        O  0.22875048  0.64143738  0.95264238    -0.81800
C313        C  0.98966604  0.43908930  0.93626879     0.86400
O314        O  0.11142721  0.55028794  0.96062302    -0.88900
O315        O  0.06195137  0.44868531  0.98596910    -0.89000
O316        O  0.14085490  0.48832392  0.99762427    -0.76100
Mg317      Mg  0.01353899  0.36055894  0.91451947     1.58000
O318        O  0.92236571  0.30675702  0.96009065    -0.83400
H319        H  0.11312024  0.48380667  0.87278018    -0.07200
O320        O  0.18837675  0.51981351  0.94705562    -0.88700
H321        H  0.23184158  0.50661800  0.96863309    -0.07000
H322        H  0.07821592  0.57771003  0.93987685    -0.07200
C323        C  0.20565538  0.49328867  0.95392208     0.86400
C324        C  0.09905208  0.45743273  0.88744815     0.87000
C325        C  0.10367266  0.56330421  0.94087682     0.87000
H326        H  0.08821814  0.42129893  0.01162538    -0.07200
O327        O  0.04466717  0.34196278  0.96875940    -0.76200
Mg328      Mg  0.18161578  0.56323771  0.97545839     1.58000
H329        H  0.09505774  0.32721455  0.95263698    -0.07200
C330        C  0.25026613  0.48710576  0.89083419     0.92000
O331        O  0.23641263  0.61582019  0.91618646    -0.83400
C332        C  0.24642954  0.65082659  0.93108214     0.92100
O333        O  0.01957397  0.31012321  0.88812400    -0.83400
Mg334      Mg  0.99322956  0.37609340  0.97555338     1.58200
O335        O  0.24305232  0.52255083  0.89791118    -0.81700
O336        O  0.98005156  0.47093067  0.00809860    -0.83400
O337        O  0.12869868  0.70121424  0.25156035    -0.89000
C338        C  0.08330242  0.76919292  0.20415433     0.87000
Mg339      Mg  0.17947047  0.67719372  0.24375516     1.58100
O340        O  0.01567779  0.63860929  0.21408173    -0.88700
O341        O  0.05555131  0.66798745  0.26768375    -0.76100
C342        C  0.13522828  0.59426403  0.12909122     0.92100
O343        O  0.19692383  0.77981389  0.21146361    -0.75900
O344        O  0.17185569  0.61072632  0.14374033    -0.83400
Mg345      Mg  0.15024054  0.77776561  0.24354111     1.58000
C346        C  0.94193866  0.55952208  0.15109849     0.92000
O347        O  0.10743712  0.78350042  0.27662148    -0.81700
H348        H  0.96606829  0.57782532  0.23321778    -0.07000
C349        C  0.09591413  0.68468545  0.15588898     0.86900
O350        O  0.11801306  0.59855563  0.23199532    -0.76200
O351        O  0.08524537  0.74718251  0.22230356    -0.88900
O352        O  0.94201874  0.57771055  0.17150205    -0.81700
C353        C  0.93685348  0.69479620  0.21277053     0.92100
C354        C  0.06425518  0.77709185  0.28121780     0.92000
Mg355      Mg  0.04483116  0.57512635  0.16984969     1.58000
O356        O  0.09193452  0.58440235  0.13592467    -0.81700
O357        O  0.99532763  0.56079493  0.20418158    -0.75900
O358        O  0.98134218  0.72517793  0.21793561    -0.81700
O359        O  0.22198893  0.80957965  0.26480628    -0.83400
O360        O  0.22712151  0.62334988  0.20016652    -0.81800
C361        C  0.99101469  0.59173010  0.21804707     0.86400
O362        O  0.10844751  0.59790560  0.19287377    -0.88900
O363        O  0.06026343  0.65173795  0.16722607    -0.89000
O364        O  0.13972340  0.69107038  0.15790639    -0.76100
Mg365      Mg  0.01953458  0.69546305  0.24084938     1.58000
O366        O  0.92864824  0.66236835  0.19651605    -0.83400
H367        H  0.11301814  0.66373721  0.28249044    -0.07200
O368        O  0.18775168  0.70416309  0.20803878    -0.88700
H369        H  0.23435702  0.76149937  0.18738709    -0.07000
H370        H  0.07234731  0.53594165  0.21274843    -0.07200
C371        C  0.20797883  0.74888282  0.20197604     0.86400
C372        C  0.10015047  0.67762878  0.26800315     0.87000
C373        C  0.09927095  0.57577359  0.21232259     0.87000
H374        H  0.08979060  0.70877773  0.14397387    -0.07200
O375        O  0.05379837  0.74523884  0.18688636    -0.76200
Mg376      Mg  0.17964267  0.65524807  0.17889898     1.58000
H377        H  0.10671292  0.80969179  0.20304025    -0.07200
C378        C  0.25368109  0.79464095  0.26536389     0.92000
O379        O  0.23170924  0.65077850  0.23753174    -0.83400
C380        C  0.24415273  0.62946184  0.22176710     0.92100
O381        O  0.02822631  0.75363508  0.26685728    -0.83400
Mg382      Mg  0.99760732  0.65992323  0.17974682     1.58200
O383        O  0.24416611  0.75165527  0.25745332    -0.81700
O384        O  0.97784972  0.55300303  0.14500999    -0.83400
O385        O  0.60182575  0.94508415  0.91777730    -0.89000
C386        C  0.71037094  0.99016497  0.86804447     0.87000
Mg387      Mg  0.52783360  0.88947084  0.91083492     1.58100
O388        O  0.65551486  0.06412516  0.88159524    -0.88700
O389        O  0.64472197  0.02010795  0.93325361    -0.76100
C390        C  0.48441497  0.93738973  0.79713071     0.92100
O391        O  0.61113993  0.87443135  0.87821358    -0.75900
O392        O  0.46304036  0.89834411  0.81070928    -0.83400
Mg393      Mg  0.65711048  0.92546425  0.90965108     1.58000
C394        C  0.63985589  0.13129030  0.82174493     0.92000
O395        O  0.70439344  0.97367120  0.94287495    -0.81700
H396        H  0.63664117  0.10343184  0.90386090    -0.07000
C397        C  0.61059108  0.97500723  0.82273184     0.86900
O398        O  0.50603840  0.94843419  0.90065934    -0.76200
O399        O  0.68734998  0.98869004  0.88643395    -0.88900
O400        O  0.65766927  0.13119493  0.84196197    -0.81700
C401        C  0.78225353  0.13975469  0.87676029     0.92100
C402        C  0.74242898  0.01782031  0.94457414     0.92000
Mg403      Mg  0.55335094  0.02567457  0.84012324     1.58000
O404        O  0.51651452  0.97980175  0.80595224    -0.81700
O405        O  0.58998649  0.07246997  0.87530413    -0.75900
O406        O  0.76915429  0.09430390  0.87977544    -0.81700
O407        O  0.62152050  0.85571459  0.93264266    -0.83400
O408        O  0.42368053  0.84120996  0.86959552    -0.81800
C409        C  0.62797865  0.08081742  0.88779703     0.86400
O410        O  0.51340929  0.95997933  0.86168057    -0.88900
O411        O  0.61395411  0.00820162  0.83745093    -0.89000
O412        O  0.57374504  0.93014699  0.82331436    -0.76100
Mg413      Mg  0.70596431  0.05622836  0.90480893     1.58000
O414        O  0.75952867  0.14937836  0.86072349    -0.83400
H415        H  0.58278434  0.96381918  0.94884869    -0.07200
O416        O  0.54465580  0.88217258  0.87450991    -0.88700
H417        H  0.55624372  0.83519078  0.85399592    -0.07000
H418        H  0.48560321  0.99272935  0.88285667    -0.07200
C419        C  0.56960474  0.86250519  0.86846158     0.86400
C420        C  0.60842242  0.97541321  0.93397559     0.87000
C421        C  0.50027525  0.96732164  0.88155049     0.87000
H422        H  0.63982956  0.98465109  0.80969538    -0.07200
O423        O  0.71688926  0.02100745  0.85128842    -0.76200
Mg424      Mg  0.50071602  0.88913516  0.84612109     1.58000
H425        H  0.72611191  0.96570178  0.86638546    -0.07200
C426        C  0.57618786  0.82085584  0.93301273     0.92000
O427        O  0.45066722  0.83258165  0.90525326    -0.83400
C428        C  0.41542503  0.82277069  0.89103784     0.92100
O429        O  0.75886831  0.04607325  0.92669323    -0.83400
Mg430      Mg  0.68726677  0.07749782  0.84692100     1.58200
O431        O  0.54158629  0.82635331  0.92396258    -0.81700
O432        O  0.59790162  0.09455494  0.81566011    -0.83400
O433        O  0.33768819  0.92140709  0.57047221    -0.89000
C434        C  0.27641964  0.97903687  0.61588106     0.87000
Mg435      Mg  0.35955049  0.86883399  0.57899769     1.58100
O436        O  0.40417655  0.03991223  0.60256791    -0.88700
O437        O  0.36909430  0.99160607  0.55097850    -0.76100
C438        C  0.45322639  0.92982106  0.69191146     0.92100
O439        O  0.26437913  0.86117122  0.61290963    -0.75900
O440        O  0.43840879  0.89087679  0.67826651    -0.83400
Mg441      Mg  0.26371187  0.90355017  0.57928186     1.58000
C442        C  0.49094856  0.12327792  0.66102392     0.92000
O443        O  0.25734159  0.94215286  0.54451816    -0.81700
H444        H  0.46302596  0.08329811  0.58103815    -0.07000
C445        C  0.36250629  0.96453618  0.66451206     0.86900
O446        O  0.43911902  0.93072047  0.58815531    -0.76200
O447        O  0.29658851  0.97274839  0.59805835    -0.88900
O448        O  0.47016983  0.11694820  0.64091748    -0.81700
C449        C  0.35546112  0.12563390  0.60271464     0.92100
C450        C  0.26467376  0.98543549  0.53819802     0.92000
Mg451      Mg  0.47021128  0.01420097  0.64739635     1.58000
O452        O  0.46194037  0.97198114  0.68308736    -0.81700
O453        O  0.48094314  0.05735912  0.61088927    -0.75900
O454        O  0.32289901  0.08071644  0.59853178    -0.81700
O455        O  0.22889983  0.82841835  0.56026740    -0.83400
O456        O  0.42149659  0.82950394  0.62108586    -0.81800
C457        C  0.44998723  0.06133925  0.59725392     0.86400
O458        O  0.44501616  0.94646079  0.62693670    -0.88900
O459        O  0.39182952  0.99688263  0.64965750    -0.89000
O460        O  0.35643287  0.92004767  0.66495165    -0.76100
Mg461      Mg  0.34692123  0.03480248  0.57673721     1.58000
O462        O  0.38820900  0.13394735  0.61839302    -0.83400
H463        H  0.37058799  0.92985235  0.53865157    -0.07200
O464        O  0.33740060  0.86566959  0.61538808    -0.88700
H465        H  0.28209444  0.82567380  0.63827539    -0.07000
H466        H  0.50370734  0.97811229  0.60510824    -0.07200
C467        C  0.29423474  0.84934008  0.62258201     0.86400
C468        C  0.35914376  0.94640233  0.55267495     0.87000
C469        C  0.46429390  0.95207293  0.60691112     0.87000
H470        H  0.34199266  0.97466627  0.67691656    -0.07200
O471        O  0.30188775  0.01125242  0.63207458    -0.76200
Mg472      Mg  0.38986393  0.87730907  0.64345953     1.58000
H473        H  0.23637870  0.95724582  0.61759474    -0.07200
C474        C  0.24161819  0.79480434  0.55992043     0.92000
O475        O  0.38471219  0.81523975  0.58535106    -0.83400
C476        C  0.41206267  0.80890802  0.59999010     0.92100
O477        O  0.28768413  0.02369458  0.55167729    -0.83400
Mg478      Mg  0.38737147  0.06457677  0.63646028     1.58200
O479        O  0.28382117  0.80317144  0.56740596    -0.81700
O480        O  0.49534493  0.08738644  0.66966396    -0.83400
O481        O  0.70563115  0.61692414  0.08511452    -0.89000
C482        C  0.77249291  0.72637382  0.03549681     0.87000
Mg483      Mg  0.68027091  0.54032139  0.07912561     1.58100
O484        O  0.64414071  0.66752336  0.04759617    -0.88700
O485        O  0.67565348  0.66102953  0.10095737    -0.76100
C486        C  0.59014627  0.49129472  0.96560278     0.92100
O487        O  0.77869365  0.61920155  0.04439569    -0.75900
O488        O  0.60320208  0.46828189  0.98054584    -0.83400
Mg489      Mg  0.78067875  0.66927286  0.07560181     1.58000
C490        C  0.56320927  0.65730325  0.98624075     0.92000
O491        O  0.78892626  0.72205624  0.10756909    -0.81700
H492        H  0.58590460  0.65939157  0.06773592    -0.07000
C493        C  0.68332830  0.61986540  0.98917312     0.86900
O494        O  0.60234967  0.52455417  0.06859320    -0.76200
O495        O  0.75095525  0.70403104  0.05401072    -0.88900
O496        O  0.58283570  0.67639586  0.00615750    -0.81700
C497        C  0.70017668  0.80210246  0.04222964     0.92100
C498        C  0.78258233  0.75950938  0.11227184     0.92000
Mg499      Mg  0.57546661  0.56777771  0.00610084     1.58000
O500        O  0.58250443  0.52663789  0.97275554    -0.81700
O501        O  0.56625593  0.60887495  0.04007128    -0.75900
O502        O  0.73055427  0.78828230  0.04810864    -0.81700
O503        O  0.81163570  0.62975126  0.09781197    -0.83400
O504        O  0.61870700  0.43216172  0.03884059    -0.81800
C505        C  0.59819294  0.64607550  0.05263232     0.86400
O506        O  0.59721400  0.52671329  0.02928466    -0.88900
O507        O  0.65501503  0.62655707  0.00318959    -0.89000
O508        O  0.68768987  0.58067639  0.99072959    -0.76100
Mg509      Mg  0.70190015  0.72230164  0.07277236     1.58000
O510        O  0.66863547  0.77711291  0.02608794    -0.83400
H511        H  0.67097702  0.59932348  0.11680045    -0.07200
O512        O  0.70351310  0.55301435  0.04259612    -0.88700
H513        H  0.75861034  0.56099831  0.02116377    -0.07000
H514        H  0.53877357  0.50646308  0.05073591    -0.07200
C515        C  0.74724038  0.57650282  0.03570842     0.86400
C516        C  0.68407043  0.62471093  0.10172307     0.87000
C517        C  0.57774878  0.51783025  0.04938680     0.87000
H518        H  0.70454634  0.64807116  0.97583800    -0.07200
O519        O  0.74874083  0.73140793  0.01810907    -0.76200
Mg520      Mg  0.65151729  0.50843724  0.01478534     1.58000
H521        H  0.81236579  0.74241679  0.03414920    -0.07200
C522        C  0.79704610  0.58297019  0.09977057     0.92000
O523        O  0.65133025  0.46012546  0.07492883    -0.83400
C524        C  0.62644277  0.42400399  0.06065158     0.92100
O525        O  0.76030179  0.77311004  0.09782055    -0.83400
Mg526      Mg  0.66444984  0.70300373  0.01224127     1.58200
O527        O  0.75451809  0.54878113  0.09237910    -0.81700
O528        O  0.55509637  0.61357766  0.98053904    -0.83400
O529        O  0.46572972  0.37665587  0.73421808    -0.89000
C530        C  0.34489041  0.30528070  0.77654994     0.87000
Mg531      Mg  0.53712119  0.39187811  0.74408016     1.58100
O532        O  0.40796378  0.43669397  0.77251808    -0.88700
O533        O  0.43383597  0.42024797  0.72009547    -0.76100
C534        C  0.56217389  0.45847008  0.86174828     0.92100
O535        O  0.44402929  0.28739149  0.77070065    -0.75900
O536        O  0.58134029  0.43960327  0.84752549    -0.83400
Mg537      Mg  0.40683504  0.30037115  0.73838035     1.58000
C538        C  0.41368352  0.50691244  0.83698655     0.92000
O539        O  0.36384438  0.30153312  0.70515043    -0.81700
H540        H  0.43289179  0.50137242  0.75466393    -0.07000
C541        C  0.43485066  0.37602066  0.82937496     0.86900
O542        O  0.55834438  0.47019236  0.75882119    -0.76200
O543        O  0.37258382  0.33060802  0.76004948    -0.88900
O544        O  0.39700959  0.49185543  0.81609697    -0.81700
C545        C  0.27753996  0.38469340  0.77011498     0.92100
C546        C  0.33138995  0.31360091  0.69941979     0.92000
Mg547      Mg  0.49939327  0.48606394  0.81959824     1.58000
O548        O  0.53085231  0.47088370  0.85425390    -0.81700
O549        O  0.47216520  0.50733822  0.78486042    -0.75900
O550        O  0.29218546  0.35556835  0.76264518    -0.81700
O551        O  0.44565884  0.27070600  0.71555988    -0.83400
O552        O  0.62960118  0.42743486  0.79140641    -0.81800
C553        C  0.43728866  0.48230524  0.76982776     0.86400
O554        O  0.54210001  0.46367724  0.79742268    -0.88900
O555        O  0.43608654  0.41153167  0.81829656    -0.89000
O556        O  0.47081665  0.36695935  0.82854713    -0.76100
Mg557      Mg  0.36487277  0.38920482  0.74342347     1.58000
O558        O  0.30023818  0.41365282  0.78773464    -0.83400
H559        H  0.49548882  0.42264863  0.70625766    -0.07200
O560        O  0.51167615  0.35881816  0.77858436    -0.88700
H561        H  0.49342683  0.29564553  0.79649559    -0.07000
H562        H  0.57639860  0.52996706  0.78071433    -0.07200
C563        C  0.48408834  0.31337554  0.78229540     0.86400
C564        C  0.46604342  0.40647668  0.71939950     0.87000
C565        C  0.56040993  0.48955035  0.77930293     0.87000
H566        H  0.40251157  0.35209381  0.84003566    -0.07200
O567        O  0.33730664  0.32626797  0.79457534    -0.76200
Mg568      Mg  0.54881163  0.40059107  0.81023715     1.58000
H569        H  0.32644089  0.26459146  0.77553971    -0.07200
C570        C  0.49053027  0.28045292  0.71552506     0.92000
O571        O  0.61179371  0.40934764  0.75257521    -0.83400
C572        C  0.64204865  0.42308909  0.76976851     0.92100
O573        O  0.32197219  0.34122492  0.71282921    -0.83400
Mg574      Mg  0.36868572  0.41052478  0.80480730     1.58200
O575        O  0.52484526  0.31756758  0.72699304    -0.81700
O576        O  0.45324391  0.50800728  0.84382682    -0.83400
C577        C  0.57631267  0.46802144  0.88777151    -0.06800
C578        C  0.57222506  0.42907804  0.90265508    -0.17900
C579        C  0.57752171  0.43508949  0.92788163     0.10400
C580        C  0.58608296  0.48072325  0.93891543    -0.06700
C581        C  0.59152769  0.51976898  0.92369467    -0.17900
C582        C  0.58747593  0.51428882  0.89873545     0.10400
S583        S  0.56984388  0.38221867  0.94502200    -0.32900
S584        S  0.59760240  0.56859808  0.88179224    -0.32900
H585        H  0.61855442  0.55801052  0.86179108     0.28500
H586        H  0.61802680  0.40900237  0.95478192     0.28400
H587        H  0.56321619  0.39313200  0.89468989     0.19000
H588        H  0.59969581  0.55580245  0.93126053     0.19000
C589        C  0.50283507  0.24866434  0.70062933    -0.06800
C590        C  0.52044203  0.21914288  0.71123079    -0.17900
C591        C  0.52235908  0.18079657  0.69815382     0.10400
C592        C  0.50476075  0.17089186  0.67424980    -0.06700
C593        C  0.49266537  0.20471603  0.66323214    -0.17900
C594        C  0.49159052  0.24320007  0.67606809     0.10400
S595        S  0.54651590  0.14570332  0.71311065    -0.32900
S596        S  0.47293953  0.28250042  0.66033146    -0.32900
H597        H  0.50017502  0.32566974  0.67468835     0.28500
H598        H  0.57331021  0.14429295  0.69305535     0.28400
H599        H  0.53066147  0.22450644  0.72999595     0.19000
H600        H  0.48125272  0.19983087  0.64464562     0.19000
C601        C  0.55586101  0.68952123  0.96934863    -0.06800
C602        C  0.53099591  0.71452875  0.97749377    -0.17900
C603        C  0.53387170  0.75526460  0.96493764     0.10400
C604        C  0.56365000  0.77257443  0.94421867    -0.06700
C605        C  0.58629648  0.74594219  0.93537479    -0.17900
C606        C  0.58269399  0.70461695  0.94768329     0.10400
S607        S  0.50356108  0.78717125  0.97761359    -0.32900
S608        S  0.61733228  0.67612397  0.93616842    -0.32900
H609        H  0.63935066  0.67645937  0.95818262     0.28500
H610        H  0.47874914  0.78542058  0.95630593     0.28400
H611        H  0.51115355  0.70374468  0.99435812     0.19000
H612        H  0.60903026  0.75901676  0.91940621     0.19000
C613        C  0.47420574  0.93483377  0.77030764    -0.06800
C614        C  0.44855701  0.88795984  0.75822720    -0.17900
C615        C  0.44097500  0.88432885  0.73305216     0.10400
C616        C  0.46073717  0.92850021  0.71878858    -0.06700
C617        C  0.48651955  0.97504821  0.73093716    -0.17900
C618        C  0.49277836  0.97904747  0.75596478     0.10400
S619        S  0.40443711  0.82214487  0.72050044    -0.32900
S620        S  0.52435816  0.04210742  0.76867982    -0.32900
H621        H  0.52449267  0.06836112  0.74819695     0.28500
H622        H  0.37259770  0.83433462  0.70795325     0.28400
H623        H  0.43390319  0.85356555  0.76848073     0.19000
H624        H  0.50206039  0.00939406  0.72064570     0.19000
C625        C  0.83093978  0.56829528  0.11089482    -0.06800
C626        C  0.87920689  0.58879613  0.10167499    -0.17900
C627        C  0.91472977  0.58031015  0.11274591     0.10400
C628        C  0.90255004  0.55234699  0.13413281    -0.06700
C629        C  0.85332540  0.52913880  0.14248569    -0.17900
C630        C  0.81732053  0.53646143  0.13101966     0.10400
S631        S  0.97649393  0.61100848  0.10034682    -0.32900
S632        S  0.75612690  0.50771831  0.14415173    -0.32900
H633        H  0.74836700  0.54858927  0.14012979     0.28500
H634        H  0.98052322  0.56722673  0.10088068     0.28400
H635        H  0.88963815  0.61256171  0.08598783     0.19000
H636        H  0.84376504  0.50807173  0.15903215     0.19000
C637        C  0.29853900  0.50072987  0.87998067    -0.06800
C638        C  0.31288784  0.53046774  0.85935825    -0.17900
C639        C  0.35463121  0.53850297  0.84627050     0.10400
C640        C  0.38252619  0.51610728  0.85386600    -0.06700
C641        C  0.37111706  0.49085082  0.87584818    -0.17900
C642        C  0.32949287  0.48310512  0.88902572     0.10400
S643        S  0.36920468  0.57571700  0.81946847    -0.32900
S644        S  0.31695305  0.44927750  0.91679787    -0.32900
H645        H  0.29321276  0.47290180  0.92796993     0.28500
H646        H  0.42012193  0.59088502  0.81940326     0.28400
H647        H  0.29013657  0.54556756  0.85279176     0.19000
H648        H  0.39250794  0.47384943  0.88194737     0.19000
C649        C  0.14207644  0.58396923  0.05186530    -0.06800
C650        C  0.10739836  0.54261336  0.06555060    -0.17900
C651        C  0.10714882  0.54367789  0.09061685     0.10400
C652        C  0.14202767  0.58727496  0.10311209    -0.06700
C653        C  0.17865570  0.62776931  0.08976000    -0.17900
C654        C  0.17887987  0.62674385  0.06442962     0.10400
S655        S  0.06126440  0.48771003  0.10572766    -0.32900
S656        S  0.22489474  0.68234592  0.04935774    -0.32900
H657        H  0.19133410  0.68225351  0.03244222     0.28500
H658        H  0.09010459  0.49481791  0.12631356     0.28400
H659        H  0.07991183  0.50845924  0.05664198     0.19000
H660        H  0.20542762  0.66173857  0.09904744     0.19000
C661        C  0.28080684  0.70268819  0.92165500    -0.06800
C662        C  0.31710980  0.73940097  0.93644903    -0.17900
C663        C  0.35764093  0.78264746  0.92675544     0.10400
C664        C  0.36481355  0.78813471  0.90136553    -0.06700
C665        C  0.32557101  0.75454743  0.88673638    -0.17900
C666        C  0.28302267  0.71306252  0.89662713     0.10400
S667        S  0.39922251  0.82902481  0.94812424    -0.32900
S668        S  0.23183961  0.67337772  0.87691347    -0.32900
H669        H  0.25181484  0.70152773  0.85594375     0.28500
H670        H  0.41194767  0.87050901  0.93314569     0.28400
H671        H  0.31509813  0.73354284  0.95560796     0.19000
H672        H  0.32924786  0.75931919  0.86753647     0.19000
C673        C  0.88487547  0.24136908  0.93004862    -0.06800
C674        C  0.85262616  0.25416280  0.91841320    -0.17900
C675        C  0.81907957  0.22255363  0.90076489     0.10400
C676        C  0.81861753  0.17763532  0.89393694    -0.06700
C677        C  0.85027188  0.16466537  0.90617236    -0.17900
C678        C  0.88246446  0.19533704  0.92420561     0.10400
S679        S  0.77727713  0.24111183  0.88823014    -0.32900
S680        S  0.91923014  0.17333273  0.93939533    -0.32900
H681        H  0.92225038  0.19787901  0.96122470     0.28500
H682        H  0.73466539  0.19375957  0.89184947     0.28400
H683        H  0.85452973  0.28970907  0.92261614     0.19000
H684        H  0.84961686  0.12974975  0.90188643     0.19000
C685        C  0.28180670  0.29917659  0.62753731    -0.06800
C686        C  0.25377440  0.30467159  0.64569230    -0.17900
C687        C  0.26517285  0.30340529  0.66970358     0.10400
C688        C  0.30698861  0.29865154  0.67575099    -0.06700
C689        C  0.33126084  0.28733120  0.65766159    -0.17900
C690        C  0.31948441  0.28774325  0.63362828     0.10400
S691        S  0.22565084  0.30953965  0.69148525    -0.32900
S692        S  0.35886306  0.28160985  0.61149909    -0.32900
H693        H  0.37724389  0.25764099  0.62635344     0.28500
H694        H  0.22954705  0.27768732  0.70832233     0.28400
H695        H  0.22403466  0.31201194  0.64112999     0.19000
H696        H  0.36286399  0.28298268  0.66210928     0.19000
C697        C  0.43229040  0.77698483  0.58992213    -0.06800
C698        C  0.43845407  0.77766394  0.56468306    -0.17900
C699        C  0.43757807  0.73729012  0.55199845     0.10400
C700        C  0.43281612  0.69550902  0.56465351    -0.06700
C701        C  0.43487842  0.69899978  0.59007315    -0.17900
C702        C  0.43422667  0.73862892  0.60269042     0.10400
S703        S  0.43743820  0.73923526  0.51984145    -0.32900
S704        S  0.43054595  0.73517642  0.63479150    -0.32900
H705        H  0.46530231  0.78657413  0.63815669     0.28500
H706        H  0.39333726  0.69255397  0.51748507     0.28400
H707        H  0.43900894  0.80783618  0.55439087     0.19000
H708        H  0.43360216  0.66859774  0.60045312     0.19000
C709        C  0.35814291  0.22879644  0.54970309    -0.06800
C710        C  0.31410855  0.19648494  0.56212941    -0.17900
C711        C  0.31325464  0.16557851  0.58066703     0.10400
C712        C  0.35720123  0.16556118  0.58714834    -0.06700
C713        C  0.40129017  0.19733718  0.57476447    -0.17900
C714        C  0.40213740  0.22827544  0.55601822     0.10400
S715        S  0.25510277  0.12850367  0.59611488    -0.32900
S716        S  0.46061862  0.26648520  0.54124518    -0.32900
H717        H  0.44064731  0.24969895  0.51822030     0.28500
H718        H  0.27667906  0.12971568  0.61840126     0.28400
H719        H  0.28001170  0.19649808  0.55796702     0.19000
H720        H  0.43490465  0.19643203  0.57900483     0.19000
C721        C  0.48259477  0.59914217  0.38279833    -0.06800
C722        C  0.52209616  0.60496385  0.39751127    -0.17900
C723        C  0.51869163  0.60281795  0.42255008     0.10400
C724        C  0.47450598  0.59419878  0.43398408    -0.06700
C725        C  0.43570265  0.59088839  0.41958383    -0.17900
C726        C  0.43907911  0.59290527  0.39430176     0.10400
S727        S  0.57252098  0.61164732  0.43896682    -0.32900
S728        S  0.38540800  0.58391734  0.37787362    -0.32900
H729        H  0.38735264  0.55056225  0.36103185     0.28500
H730        H  0.56324027  0.63239296  0.45953744     0.28400
H731        H  0.55662005  0.61165459  0.38945047     0.19000
H732        H  0.40121805  0.58347662  0.42798407     0.19000
C733        C  0.28055134  0.61415646  0.23057006    -0.06800
C734        C  0.28394639  0.60987143  0.25571774    -0.17900
C735        C  0.32661008  0.61420991  0.26678632     0.10400
C736        C  0.36676942  0.62031953  0.25258347    -0.06700
C737        C  0.36014029  0.61724855  0.22734064    -0.17900
C738        C  0.31816994  0.61455167  0.21631693     0.10400
S739        S  0.32914978  0.61676141  0.29895444    -0.32900
S740        S  0.31719484  0.61627109  0.18417088    -0.32900
H741        H  0.26751038  0.57707947  0.18243807     0.28500
H742        H  0.37346456  0.66358669  0.29968289     0.28400
H743        H  0.25476760  0.60767400  0.26722282     0.19000
H744        H  0.38931038  0.61963014  0.21577884     0.19000
C745        C  0.82843586  0.69070580  0.26310558    -0.06800
C746        C  0.87014517  0.73664028  0.25673728    -0.17900
C747        C  0.90390187  0.73922798  0.23934085     0.10400
C748        C  0.89697817  0.69466694  0.22786063    -0.06700
C749        C  0.85487670  0.64860636  0.23398579    -0.17900
C750        C  0.82088922  0.64617350  0.25144155     0.10400
S751        S  0.95337922  0.80130025  0.23160474    -0.32900
S752        S  0.76692703  0.58573673  0.25694543    -0.32900
H753        H  0.77500520  0.58835846  0.28179490     0.28500
H754        H  0.95313539  0.79025772  0.20710329     0.28400
H755        H  0.87549325  0.77134597  0.26476691     0.19000
H756        H  0.84903968  0.61404348  0.22560687     0.19000
C757        C  0.77278932  0.78586299  0.18500373    -0.06800
C758        C  0.76548929  0.81563473  0.16848043    -0.17900
C759        C  0.77712926  0.81533034  0.14442574     0.10400
C760        C  0.79443083  0.78266473  0.13645749    -0.06700
C761        C  0.81020620  0.76048887  0.15355747    -0.17900
C762        C  0.79937985  0.76121616  0.17774541     0.10400
S763        S  0.76531208  0.85467931  0.12495694    -0.32900
S764        S  0.81386669  0.72400988  0.19772408    -0.32900
H765        H  0.84857250  0.72018362  0.18289377     0.28500
H766        H  0.80517579  0.86505432  0.10952294     0.28400
H767        H  0.74805089  0.83715945  0.17405473     0.19000
H768        H  0.82560902  0.73728670  0.14775410     0.19000
C769        C  0.47625226  0.28908747  0.44141880    -0.06800
C770        C  0.50635508  0.30373033  0.46188351    -0.17900
C771        C  0.51838303  0.34846525  0.47400284     0.10400
C772        C  0.49995372  0.37947392  0.46553329    -0.06700
C773        C  0.47331322  0.36683649  0.44394252    -0.17900
C774        C  0.46139722  0.32202865  0.43176591     0.10400
S775        S  0.55541578  0.36280487  0.50081761    -0.32900
S776        S  0.42601068  0.30828309  0.40447021    -0.32900
H777        H  0.44684278  0.28178070  0.39334045     0.28500
H778        H  0.57345737  0.41505930  0.50041392     0.28400
H779        H  0.51925175  0.27931554  0.46891897     0.19000
H780        H  0.45860536  0.39007751  0.43741895     0.19000
C781        C  0.38818717  0.89526338  0.30177669    -0.06800
C782        C  0.37847370  0.90869217  0.27931244    -0.17900
C783        C  0.33611243  0.87528209  0.26627244     0.10400
C784        C  0.30283924  0.82763496  0.27592111    -0.06700
C785        C  0.31551576  0.81212764  0.29696182    -0.17900
C786        C  0.35798574  0.84532816  0.30991806     0.10400
S787        S  0.32530741  0.89628683  0.23802422    -0.32900
S788        S  0.37016949  0.82282086  0.33739496    -0.32900
H789        H  0.42151061  0.85759334  0.33780387     0.28500
H790        H  0.29911766  0.84809670  0.22748985     0.28400
H791        H  0.40156890  0.94673387  0.27278883     0.19000
H792        H  0.29086863  0.77485499  0.30398664     0.19000
C793        C  0.27237761  0.02565291  0.46576089    -0.06800
C794        C  0.24681876  0.97393000  0.47148942    -0.17900
C795        C  0.23709875  0.95786351  0.49526354     0.10400
C796        C  0.25296300  0.99457658  0.51364776    -0.06700
C797        C  0.26863585  0.04492171  0.50739722    -0.17900
C798        C  0.27842998  0.06082250  0.48371412     0.10400
S799        S  0.20788207  0.89113406  0.50151608    -0.32900
S800        S  0.30128866  0.12670248  0.47800149    -0.32900
H801        H  0.27880425  0.11833356  0.45531463     0.28500
H802        H  0.20127402  0.87394501  0.47767999     0.28400
H803        H  0.23861405  0.94606540  0.45757771     0.19000
H804        H  0.27755732  0.07332100  0.52115834     0.19000
C805        C  0.79376135  0.07749053  0.01443253    -0.06800
C806        C  0.78989096  0.10779065  0.99692608    -0.17900
C807        C  0.77464851  0.08949980  0.97379354     0.10400
C808        C  0.76471577  0.04021412  0.96778895    -0.06700
C809        C  0.77524118  0.01274230  0.98431361    -0.17900
C810        C  0.79130117  0.03172542  0.00739092     0.10400
S811        S  0.76054266  0.12688996  0.95370448    -0.32900
S812        S  0.80711711  0.99555557  0.02709734    -0.32900
H813        H  0.83878539  0.03681375  0.04173451     0.28500
H814        H  0.78849751  0.17321373  0.96577927     0.28400
H815        H  0.79247218  0.14323189  0.00200113     0.19000
H816        H  0.77029948  0.97622897  0.97934067     0.19000
C817        C  0.89939885  0.40239255  0.01908916    -0.06800
C818        C  0.85255893  0.37057905  0.00875664    -0.17900
C819        C  0.81490220  0.33080310  0.02159862     0.10400
C820        C  0.82456847  0.32163341  0.04509478    -0.06700
C821        C  0.86928862  0.35614724  0.05624773    -0.17900
C822        C  0.90623032  0.39729459  0.04371182     0.10400
S823        S  0.75783730  0.28931022  0.00609293    -0.32900
S824        S  0.96318427  0.43806228  0.05933586    -0.32900
H825        H  0.96539501  0.48251534  0.05116336     0.28500
H826        H  0.72687735  0.28227728  0.02578392     0.28400
H827        H  0.84646391  0.37444316  0.98998703     0.19000
H828        H  0.87641214  0.34964170  0.07448444     0.19000
C829        C  0.59242875  0.14309471  0.21923026    -0.06800
C830        C  0.58051118  0.17784882  0.22954149    -0.17900
C831        C  0.57267616  0.17859556  0.25442319     0.10400
C832        C  0.57762895  0.14446800  0.26967076    -0.06700
C833        C  0.59115069  0.11116312  0.25946563    -0.17900
C834        C  0.59963043  0.11077539  0.23490039     0.10400
S835        S  0.55325406  0.22162032  0.26528904    -0.32900
S836        S  0.62219677  0.06953372  0.22519297    -0.32900
H837        H  0.66105770  0.10760776  0.21189042     0.28500
H838        H  0.51844709  0.18784726  0.28172167     0.28400
H839        H  0.57523370  0.20320689  0.21808192     0.19000
H840        H  0.59561156  0.08518399  0.27088410     0.19000
C841        C  0.60791706  0.28935050  0.09412055    -0.06800
C842        C  0.59470901  0.28745735  0.06970794    -0.17900
C843        C  0.59484810  0.32838913  0.05832132     0.10400
C844        C  0.60853352  0.37284336  0.07148240    -0.06700
C845        C  0.61334148  0.37096654  0.09670324    -0.17900
C846        C  0.61454544  0.33077380  0.10793048     0.10400
S847        S  0.58067474  0.32260411  0.02688200    -0.32900
S848        S  0.63103907  0.33779350  0.13915415    -0.32900
H849        H  0.67153455  0.32979558  0.13573661     0.28500
H850        H  0.55026435  0.34449167  0.02889928     0.28400
H851        H  0.58773863  0.25503805  0.05889299     0.19000
H852        H  0.62101417  0.40328674  0.10775165     0.19000
C853        C  0.69992116  0.84328326  0.05627211    -0.06800
C854        C  0.74604120  0.88396076  0.06337506    -0.17900
C855        C  0.74950504  0.91876916  0.08073207     0.10400
C856        C  0.70581984  0.91315981  0.09160684    -0.06700
C857        C  0.65965321  0.87234608  0.08467439    -0.17900
C858        C  0.65622271  0.83789699  0.06701252     0.10400
S859        S  0.81112113  0.96755483  0.08934748    -0.32900
S860        S  0.59537092  0.78618531  0.06000883    -0.32900
H861        H  0.60043190  0.79599901  0.03530563     0.28500
H862        H  0.79932083  0.96945021  0.11350775     0.28400
H863        H  0.77998687  0.88765948  0.05592600     0.19000
H864        H  0.62580241  0.86809813  0.09251621     0.19000
C865        C  0.56232555  0.83182707  0.20703541    -0.06800
C866        C  0.54624814  0.82153550  0.18324403    -0.17900
C867        C  0.54021713  0.85651390  0.16985717     0.10400
C868        C  0.55184643  0.90342070  0.18031000    -0.06700
C869        C  0.56268711  0.91116442  0.20485277    -0.17900
C870        C  0.56766233  0.87558314  0.21836034     0.10400
S871        S  0.51979091  0.84014131  0.13924483    -0.32900
S872        S  0.58367460  0.88934222  0.24954983    -0.32900
H873        H  0.56030366  0.83883276  0.25694665     0.28500
H874        H  0.49889411  0.87161827  0.13763710     0.28400
H875        H  0.54033073  0.78699855  0.17476731     0.19000
H876        H  0.57112817  0.94667354  0.21315036     0.19000
C877        C  0.01909157  0.77123623  0.35225391    -0.06800
C878        C  0.07038879  0.79954373  0.34720709    -0.17900
C879        C  0.08755660  0.80975118  0.32372701     0.10400
C880        C  0.05264462  0.79073588  0.30487465    -0.06700
C881        C  0.00215270  0.77302802  0.31025658    -0.17900
C882        C  0.98503219  0.76336938  0.33378166     0.10400
S883        S  0.15395944  0.84340372  0.31929326    -0.32900
S884        S  0.91938450  0.73815839  0.33864548    -0.32900
H885        H  0.92553721  0.76106710  0.36126281     0.28500
H886        H  0.15182094  0.86760920  0.29837584     0.28400
H887        H  0.09765656  0.80995840  0.36137082     0.19000
H888        H  0.97489231  0.76208317  0.29605043     0.19000
C889        C  0.76171351  0.56739159  0.37519848    -0.06800
C890        C  0.74034205  0.59657827  0.38195527    -0.17900
C891        C  0.69750499  0.59041559  0.37071942     0.10400
C892        C  0.67604748  0.55522942  0.35183443    -0.06700
C893        C  0.69593700  0.52428553  0.34581910    -0.17900
C894        C  0.73836522  0.52976441  0.35737402     0.10400
S895        S  0.67527440  0.63256156  0.37926746    -0.32900
S896        S  0.76333167  0.49093992  0.34701420    -0.32900
H897        H  0.81343859  0.52930159  0.34814893     0.28500
H898        H  0.62536552  0.59400150  0.38063218     0.28400
H899        H  0.75772329  0.62510896  0.39580716     0.19000
H900        H  0.68036108  0.49813006  0.33090980     0.19000
C901        C  0.75681656  0.36522562  0.42412620    -0.06800
C902        C  0.71008497  0.35904983  0.42922157    -0.17900
C903        C  0.66837567  0.32677614  0.41562567     0.10400
C904        C  0.67129329  0.29516243  0.39761975    -0.06700
C905        C  0.71801860  0.30037326  0.39269073    -0.17900
C906        C  0.76084472  0.33595431  0.40531146     0.10400
S907        S  0.61313988  0.33105164  0.42111387    -0.32900
S908        S  0.81997540  0.34359872  0.39618644    -0.32900
H909        H  0.84533740  0.36621356  0.41758466     0.28500
H910        H  0.59569814  0.32037449  0.39737677     0.28400
H911        H  0.70694426  0.38372547  0.44227086     0.19000
H912        H  0.72118520  0.27655100  0.37919676     0.19000
C913        C  0.16782461  0.81600396  0.42833178    -0.06800
C914        C  0.20393452  0.80555568  0.41900572    -0.17900
C915        C  0.23572752  0.83435824  0.40023544     0.10400
C916        C  0.23180388  0.87491903  0.39054864    -0.06700
C917        C  0.19537358  0.88472319  0.39994162    -0.17900
C918        C  0.16443593  0.85680044  0.41873394     0.10400
S919        S  0.28144448  0.81868211  0.39009550    -0.32900
S920        S  0.12224622  0.87647195  0.43014471    -0.32900
H921        H  0.12320470  0.86208260  0.45390210     0.28500
H922        H  0.26858545  0.81669569  0.36583015     0.28400
H923        H  0.20616912  0.77361665  0.42572727     0.19000
H924        H  0.19219723  0.91613255  0.39319538     0.19000
C925        C  0.20740439  0.74528483  0.54937542    -0.06800
C926        C  0.22501587  0.72793236  0.53056457    -0.17900
C927        C  0.19227508  0.68662888  0.51656713     0.10400
C928        C  0.14095119  0.66161558  0.52171521    -0.06700
C929        C  0.12408384  0.67588146  0.54199894    -0.17900
C930        C  0.15672308  0.71764206  0.55581547     0.10400
S931        S  0.21763820  0.66957191  0.49149028    -0.32900
S932        S  0.13111462  0.73511702  0.58065951    -0.32900
H933        H  0.17495065  0.75764124  0.59441966     0.28500
H934        H  0.17916594  0.61905838  0.49016674     0.28400
H935        H  0.26403717  0.74862688  0.52576026     0.19000
H936        H  0.08466985  0.65698326  0.54598629     0.19000
C937        C  0.02118762  0.29048841  0.80247387    -0.06800
C938        C  0.98602147  0.25866844  0.81920420    -0.17900
C939        C  0.99872860  0.26071260  0.84328268     0.10400
C940        C  0.04719784  0.29702639  0.85093769    -0.06700
C941        C  0.08405701  0.32223998  0.83370580    -0.17900
C942        C  0.07179624  0.32022756  0.80960544     0.10400
S943        S  0.95070580  0.21799266  0.86331898    -0.32900
S944        S  0.12075640  0.36261843  0.78964042    -0.32900
H945        H  0.16124812  0.37097094  0.80412915     0.28500
H946        H  0.98387592  0.21602981  0.87984000     0.28400
H947        H  0.94786204  0.23376156  0.81372471     0.19000
H948        H  0.12161957  0.34882528  0.83934055     0.19000
C949        C  0.75768220  0.41971791  0.73026739    -0.06800
C950        C  0.76188286  0.46677661  0.73541983    -0.17900
C951        C  0.72771128  0.47079546  0.75088248     0.10400
C952        C  0.69024388  0.42756301  0.76274961    -0.06700
C953        C  0.68751458  0.38118230  0.75802464    -0.17900
C954        C  0.71902158  0.37656292  0.74154694     0.10400
S955        S  0.73274050  0.53173889  0.75432814    -0.32900
S956        S  0.70824597  0.31370046  0.73574226    -0.32900
H957        H  0.72842084  0.32363529  0.71253656     0.28500
H958        H  0.70557966  0.52082933  0.77575761     0.28400
H959        H  0.79237358  0.50056856  0.72782632     0.19000
H960        H  0.65733031  0.34710589  0.76565193     0.19000
C961        C  0.16374627  0.37424799  0.72239585    -0.06800
C962        C  0.20516762  0.42175011  0.72761430    -0.17900
C963        C  0.24164025  0.42720715  0.74428145     0.10400
C964        C  0.23621225  0.38456346  0.75668932    -0.06700
C965        C  0.19473977  0.33737572  0.75151822    -0.17900
C966        C  0.15906314  0.33163839  0.73460942     0.10400
S967        S  0.29514624  0.48905264  0.74812235    -0.32900
S968        S  0.10976153  0.26811813  0.72868277    -0.32900
H969        H  0.10774217  0.27530152  0.70395876     0.28500
H970        H  0.33010197  0.47262479  0.74923061     0.28400
H971        H  0.20908706  0.45491954  0.71876062     0.19000
H972        H  0.19110841  0.30405300  0.76010941     0.19000
C973        C  0.75999830  0.23278698  0.77868797    -0.06800
C974        C  0.74383412  0.25207258  0.79731679    -0.17900
C975        C  0.70082111  0.22057229  0.81029746     0.10400
C976        C  0.67291142  0.16884696  0.80430998    -0.06700
C977        C  0.68661875  0.15072351  0.78428934    -0.17900
C978        C  0.72983738  0.18207171  0.77145579     0.10400
S979        S  0.68464831  0.24787080  0.83497887    -0.32900
S980        S  0.74523149  0.15478718  0.74650873    -0.32900
H981        H  0.76771389  0.19900295  0.73278537     0.28500
H982        H  0.63391769  0.21107278  0.83537311     0.28400
H983        H  0.76605362  0.29137970  0.80249098     0.19000
H984        H  0.66557891  0.11100260  0.77966858     0.19000
C985        C  0.89859730  0.45939726  0.60137746    -0.06800
C986        C  0.93046137  0.50696964  0.59181674    -0.17900
C987        C  0.93128279  0.51640559  0.56735255     0.10400
C988        C  0.90100695  0.47691024  0.55114795    -0.06700
C989        C  0.86720014  0.42954797  0.56077428    -0.17900
C990        C  0.86592939  0.42030245  0.58561242     0.10400
S991        S  0.97060862  0.58075646  0.55824381    -0.32900
S992        S  0.82412987  0.35721218  0.59574761    -0.32900
H993        H  0.85572525  0.35677639  0.61359174     0.28500
H994        H  0.93291716  0.58042618  0.54423044     0.28400
H995        H  0.95523727  0.53742804  0.60364457     0.19000
H996        H  0.84338781  0.39891696  0.54882510     0.19000
C997        C  0.14346336  0.50576830  0.62862455    -0.06800
C998        C  0.12909471  0.47601100  0.60779290    -0.17900
C999        C  0.16367621  0.46951070  0.59438065     0.10400
C1000       C  0.21388216  0.49348499  0.60182889    -0.06700
C1001       C  0.22908871  0.52702290  0.62131430    -0.17900
C1002       C  0.19441025  0.53321124  0.63483359     0.10400
S1003       S  0.14111774  0.42856652  0.56852581    -0.32900
S1004       S  0.21691717  0.57449761  0.66055827    -0.32900
H1005       H  0.17740023  0.58462176  0.66132671     0.28500
H1006       H  0.18559918  0.45389045  0.55542548     0.28400
H1007       H  0.09010334  0.45462746  0.60293616     0.19000
H1008       H  0.26771339  0.54628402  0.62687554     0.19000
loop_ 
_geom_bond_atom_site_label_1 
_geom_bond_atom_site_label_2 
_geom_bond_distance 
_geom_bond_site_symmetry_2 
_ccdc_geom_bond_type 
O1           Mg3   2.085       .  S
O1           Mg9   2.142       .  S
O1           C36   1.233       .  S
C2           O15   1.238       .  S
C2           O39   1.276   1_655  A
C2           H41   1.082       .  S
Mg3          O32   2.142       .  S
Mg3          O47   2.283       .  S
Mg3          O43   2.152       .  S
Mg3          O14   2.289       .  S
O4          Mg46   2.113       .  S
O4          Mg29   2.148       .  S
O4           C25   1.241       .  S
O5           C36   1.264   1_455  A
O5          Mg29   2.280       .  S
C6            O8   1.284       .  A
C6           O20   1.279       .  A
C6          C985   1.491       .  S
O7           C35   1.270       .  A
O7           Mg9   2.287       .  S
O8          Mg40   2.330       .  S
Mg9          O15   2.130       .  S
Mg9          O23   2.279       .  S
Mg9          O11   2.336       .  S
C10          O48   1.273       .  A
C10          O16   1.264       .  A
C10         C997   1.474       .  S
O11          C18   1.279   1_655  A
H12          C25   1.080       .  S
C13          O28   1.275       .  A
C13          H38   1.084       .  S
C13          O27   1.265       .  A
O14          C37   1.272       .  A
O15         Mg29   2.123   1_655  S
O16         Mg46   2.277       .  S
C17          O30   1.268       .  A
C17          O22   1.254       .  A
C17         C961   1.492       .  S
C18          O45   1.259       .  A
C18         C937   1.475       .  S
Mg19         O26   2.153   1_455  S
Mg19         O20   2.311   1_455  S
Mg19         O21   2.352       .  S
Mg19         O48   2.319       .  S
Mg19         O27   2.205   1_455  S
O21          C25   1.280       .  A
O22         Mg29   2.223       .  S
O23          C42   1.275       .  A
O24          C44   1.294       .  A
O24         Mg40   2.454       .  S
O26         Mg40   2.186       .  S
O26          C37   1.239       .  S
O27         Mg46   2.274   1_655  S
O28         Mg40   2.347       .  S
Mg29         O45   2.193       .  S
O30         Mg46   2.358       .  S
H31          C36   1.082       .  S
O32         Mg40   2.141       .  S
O32          C35   1.237       .  S
H33          C35   1.082       .  S
H34          C37   1.081       .  S
O39         Mg46   2.337       .  S
C42          O47   1.271       .  A
C42         C973   1.473       .  S
O43          C44   1.259       .  A
C44         C949   1.488       .  S
O49         Mg51   2.100       .  S
O49         Mg57   2.144       .  S
O49          C84   1.233       .  S
C50          O63   1.238       .  S
C50          O87   1.275   1_655  A
C50          H89   1.082       .  S
Mg51         O80   2.143       .  S
Mg51         O95   2.297       .  S
Mg51         O91   2.185       .  S
Mg51         O62   2.288       .  S
O52         Mg94   2.115       .  S
O52         Mg77   2.146       .  S
O52          C73   1.241       .  S
O53          C84   1.264   1_455  A
O53         Mg77   2.278       .  S
C54          O56   1.284       .  A
C54          O68   1.275       .  A
C54         C988   1.502       .  S
O55          C83   1.269       .  A
O55         Mg57   2.284       .  S
O56         Mg88   2.347       .  S
Mg57         O63   2.120       .  S
Mg57         O71   2.256       .  S
Mg57         O59   2.328       .  S
C58          O96   1.268       .  A
C58          O64   1.264       .  A
C58         C928   1.467       .  S
O59          C66   1.278   1_655  A
H60          C73   1.080       .  S
C61          O76   1.275       .  A
C61          H86   1.084       .  S
C61          O75   1.264       .  A
O62          C85   1.272       .  A
O63         Mg77   2.131   1_655  S
O64         Mg94   2.270       .  S
C65          O78   1.268       .  A
C65          O70   1.253       .  A
C65         C913   1.485       .  S
C66          O93   1.265       .  A
C66         C877   1.480       .  S
Mg67         O74   2.137       .  S
Mg67         O68   2.296       .  S
Mg67         O69   2.354   1_655  S
Mg67         O96   2.291   1_655  S
Mg67         O75   2.210       .  S
O69          C73   1.281       .  A
O70         Mg77   2.224       .  S
O71          C90   1.274       .  A
O72          C92   1.291       .  A
O72         Mg88   2.413       .  S
O74         Mg88   2.178       .  S
O74          C85   1.240       .  S
O75         Mg94   2.266   1_655  S
O76         Mg88   2.344       .  S
Mg77         O93   2.197       .  S
O78         Mg94   2.357       .  S
H79          C84   1.081       .  S
O80         Mg88   2.137       .  S
O80          C83   1.237       .  S
H81          C83   1.082       .  S
H82          C85   1.082       .  S
O87         Mg94   2.336       .  S
C90          O95   1.274       .  A
C90         C889   1.472       .  S
O91          C92   1.263       .  A
C92         C901   1.478       .  S
O97         Mg99   2.102       .  S
O97        Mg105   2.141       .  S
O97         C132   1.233       .  S
C98         O111   1.240       .  S
C98         O135   1.277       .  A
C98         H137   1.082       .  S
Mg99        O128   2.134       .  S
Mg99        O143   2.303       .  S
Mg99        O139   2.175       .  S
Mg99        O110   2.292       .  S
O100        C121   1.268       .  A
O100       Mg142   2.198       .  S
O100       Mg125   2.231       .  S
O101        C132   1.264       .  A
O101       Mg125   2.278       .  S
C102        O104   1.284       .  A
C102        O116   1.274       .  A
C102        C829   1.504       .  S
O103        C131   1.270       .  A
O103       Mg105   2.291       .  S
O104       Mg136   2.345       .  S
Mg105       O111   2.115       .  S
Mg105       O119   2.258       .  S
Mg105       O107   2.316       .  S
C106        O144   1.272       .  A
C106        O112   1.264       .  A
C106        C868   1.474       .  S
O107        C114   1.279       .  A
H108        C121   1.083   1_565  S
C109        O124   1.275       .  A
C109        H134   1.084       .  S
C109        O123   1.266       .  A
O110        C133   1.272       .  A
O111       Mg125   2.140       .  S
O112       Mg142   2.271   1_565  S
C113        O126   1.266       .  A
C113        O118   1.256       .  A
C113        C856   1.482       .  S
C114        O141   1.265       .  A
C114        C805   1.475       .  S
Mg115       O122   2.141       .  S
Mg115       O116   2.291       .  S
Mg115       O117   2.356       .  S
Mg115       O144   2.302   1_545  S
Mg115       O123   2.217       .  S
O117        C121   1.278       .  A
O118       Mg125   2.236   1_565  S
O119        C138   1.273       .  A
O120        C140   1.293       .  A
O120       Mg136   2.428       .  S
O122       Mg136   2.176       .  S
O122        C133   1.239       .  S
O123       Mg142   2.242       .  S
O124       Mg136   2.339       .  S
Mg125       O141   2.206       .  S
O126       Mg142   2.323   1_565  S
H127        C132   1.082       .  S
O128       Mg136   2.145       .  S
O128        C131   1.237       .  S
H129        C131   1.082       .  S
H130        C133   1.081       .  S
O135       Mg142   2.334       .  S
C138        O143   1.274       .  A
C138        C820   1.468       .  S
O139        C140   1.264       .  A
C140        C841   1.492       .  S
O145       Mg147   2.090       .  S
O145       Mg153   2.147       .  S
O145        C180   1.232       .  S
C146        O159   1.239       .  S
C146        O183   1.277       .  A
C146        H185   1.082       .  S
Mg147       O176   2.138       .  S
Mg147       O191   2.272       .  S
Mg147       O187   2.156       .  S
Mg147       O158   2.282       .  S
O148       Mg190   2.112   1_545  S
O148       Mg173   2.150       .  S
O148        C169   1.242   1_545  S
O149        C180   1.263       .  A
O149       Mg173   2.277       .  S
C150        O152   1.283       .  A
C150        O164   1.280       .  A
C150        C832   1.492       .  S
O151        C179   1.269       .  A
O151       Mg153   2.284       .  S
O152       Mg184   2.321       .  S
Mg153       O159   2.124       .  S
Mg153       O167   2.285       .  S
Mg153       O155   2.334       .  S
C154        O192   1.271       .  A
C154        O160   1.262       .  A
C154        C781   1.472       .  S
O155        C162   1.280       .  A
H156        C169   1.079       .  S
C157        O172   1.274       .  A
C157        H182   1.084       .  S
C157        O171   1.264       .  A
O158        C181   1.271       .  A
O159       Mg173   2.130       .  S
O160       Mg190   2.265       .  S
C161        O174   1.267       .  A
C161        O166   1.253       .  A
C161        C916   1.492       .  S
C162        O189   1.266       .  A
C162        C793   1.482       .  S
Mg163       O170   2.138       .  S
Mg163       O164   2.318       .  S
Mg163       O165   2.362   1_545  S
Mg163       O192   2.314   1_545  S
Mg163       O171   2.206       .  S
O165        C169   1.283       .  A
O166       Mg173   2.224   1_565  S
O167        C186   1.276       .  A
O168        C188   1.292       .  A
O168       Mg184   2.443       .  S
O170       Mg184   2.181       .  S
O170        C181   1.239       .  S
O171       Mg190   2.268   1_545  S
O172       Mg184   2.345       .  S
Mg173       O189   2.203       .  S
O174       Mg190   2.363       .  S
H175        C180   1.081       .  S
O176       Mg184   2.139       .  S
O176        C179   1.237       .  S
H177        C179   1.082       .  S
H178        C181   1.082       .  S
O183       Mg190   2.340   1_545  S
C186        O191   1.270       .  A
C186        C769   1.470       .  S
O187        C188   1.260       .  A
C188        C904   1.494       .  S
O193       Mg195   2.104       .  S
O193       Mg201   2.138       .  S
O193        C228   1.233       .  S
C194        O207   1.238       .  S
C194        O231   1.276       .  A
C194        H233   1.082       .  S
Mg195       O224   2.136       .  S
Mg195       O239   2.290       .  S
Mg195       O235   2.180       .  S
Mg195       O206   2.289       .  S
O196       Mg238   2.112       .  S
O196       Mg221   2.142       .  S
O196        C217   1.242       .  S
O197        C228   1.265       .  A
O197       Mg221   2.286       .  S
C198        O200   1.285       .  A
C198        O212   1.277       .  A
C198        C721   1.511       .  S
O199        C227   1.271       .  A
O199       Mg201   2.291       .  S
O200       Mg232   2.350       .  S
Mg201       O207   2.136       .  S
Mg201       O215   2.273       .  S
Mg201       O203   2.342       .  S
C202        O240   1.268       .  A
C202        O208   1.261       .  A
C202        C892   1.467       .  S
O203        C210   1.280       .  A
H204        C217   1.080       .  S
C205        O220   1.276       .  A
C205        H230   1.083       .  S
C205        O219   1.266       .  A
O206        C229   1.271       .  A
O207       Mg221   2.125       .  S
O208       Mg238   2.263       .  S
C209        O222   1.267       .  A
C209        O214   1.257       .  A
C209        C745   1.490       .  S
C210        O237   1.257       .  A
C210        C757   1.477       .  S
Mg211       O218   2.134       .  S
Mg211       O212   2.302       .  S
Mg211       O213   2.357       .  S
Mg211       O240   2.300       .  S
Mg211       O219   2.210       .  S
O213        C217   1.282       .  A
O214       Mg221   2.243       .  S
O215        C234   1.275       .  A
O216        C236   1.295       .  A
O216       Mg232   2.447       .  S
O218       Mg232   2.172       .  S
O218        C229   1.239       .  S
O219       Mg238   2.268       .  S
O220       Mg232   2.349       .  S
Mg221       O237   2.185       .  S
O222       Mg238   2.340       .  S
H223        C228   1.081       .  S
O224       Mg232   2.146       .  S
O224        C227   1.238       .  S
H225        C227   1.082       .  S
H226        C229   1.081       .  S
O231       Mg238   2.335       .  S
C234        O239   1.272       .  A
C234        C865   1.467       .  S
O235        C236   1.265       .  A
C236        C736   1.507       .  S
O241       Mg243   2.090       .  S
O241       Mg249   2.132       .  S
O241        C276   1.235       .  S
C242        O255   1.238       .  S
C242        O279   1.275       .  A
C242        H281   1.082       .  S
Mg243       O272   2.135       .  S
Mg243       O287   2.308       .  S
Mg243       O283   2.167       .  S
Mg243       O254   2.298       .  S
O244       Mg286   2.109       .  S
O244       Mg269   2.138       .  S
O244        C265   1.242       .  S
O245        C276   1.267       .  A
O245       Mg269   2.291       .  S
C246        O248   1.286       .  A
C246        O260   1.280       .  A
C246        C724   1.499       .  S
O247        C275   1.273       .  A
O247       Mg249   2.297       .  S
O248       Mg280   2.341       .  S
Mg249       O255   2.126       .  S
Mg249       O263   2.256       .  S
Mg249       O251   2.329       .  S
C250        O288   1.271       .  A
C250        O256   1.257       .  A
C250        C772   1.471       .  S
O251        C258   1.276       .  A
H252        C265   1.080       .  S
C253        O268   1.277       .  A
C253        H278   1.083       .  S
C253        O267   1.266       .  A
O254        C277   1.273       .  A
O255       Mg269   2.115       .  S
O256       Mg286   2.252       .  S
C257        O270   1.267       .  A
C257        O262   1.257       .  A
C257        C709   1.496       .  S
C258        O285   1.259       .  A
C258        C685   1.469       .  S
Mg259       O266   2.148       .  S
Mg259       O260   2.323       .  S
Mg259       O261   2.362       .  S
Mg259       O288   2.335       .  S
Mg259       O267   2.207       .  S
O261        C265   1.283       .  A
O262       Mg269   2.234       .  S
O263        C282   1.272       .  A
O264        C284   1.297       .  A
O264       Mg280   2.468       .  S
O266       Mg280   2.173       .  S
O266        C277   1.239       .  S
O267       Mg286   2.279       .  S
O268       Mg280   2.351       .  S
Mg269       O285   2.212       .  S
O270       Mg286   2.345       .  S
H271        C276   1.081       .  S
O272       Mg280   2.154       .  S
O272        C275   1.240       .  S
H273        C275   1.083       .  S
H274        C277   1.081       .  S
O279       Mg286   2.330       .  S
C282        O287   1.274       .  A
C282       C1000   1.475       .  S
O283        C284   1.263       .  A
C284        C700   1.508       .  S
O289       Mg291   2.095       .  S
O289       Mg297   2.145       .  S
O289        C324   1.233       .  S
C290        O303   1.239       .  S
C290        O327   1.276       .  A
C290        H329   1.082       .  S
Mg291       O320   2.129       .  S
Mg291       O335   2.285       .  S
Mg291       O331   2.179       .  S
Mg291       O302   2.295       .  S
O292        C313   1.268   1_455  A
O292       Mg334   2.196   1_455  S
O292       Mg317   2.232       .  S
O293        C324   1.263       .  A
O293       Mg317   2.272       .  S
C294        O296   1.285       .  A
C294        O308   1.274       .  A
C294        C649   1.509       .  S
O295        C323   1.270       .  A
O295       Mg297   2.285       .  S
O296       Mg328   2.352   1_554  S
Mg297       O303   2.120       .  S
Mg297       O311   2.279       .  S
Mg297       O299   2.315       .  S
C298        O336   1.270       .  A
C298        O304   1.266   1_554  A
C298        C817   1.480       .  S
O299        C306   1.281       .  A
H300        C313   1.083       .  S
C301        O316   1.278       .  A
C301        H326   1.083   1_556  S
C301        O315   1.268       .  A
O302        C325   1.273       .  A
O303       Mg317   2.144       .  S
O304       Mg334   2.279       .  S
C305        O318   1.267       .  A
C305        O310   1.258       .  A
C305        C673   1.478       .  S
C306        O333   1.266       .  A
C306        C940   1.478       .  S
Mg307       O314   2.145       .  S
Mg307       O308   2.284   1_556  S
Mg307       O309   2.354   1_455  S
Mg307       O336   2.297   1_456  S
Mg307       O315   2.219       .  S
O309        C313   1.278       .  A
O310       Mg317   2.251   1_655  S
O311        C330   1.276       .  A
O312        C332   1.296       .  A
O312       Mg328   2.457       .  S
O314       Mg328   2.175       .  S
O314        C325   1.240       .  S
O315       Mg334   2.255   1_455  S
O316       Mg328   2.352       .  S
Mg317       O333   2.202       .  S
O318       Mg334   2.327       .  S
H319        C324   1.082       .  S
O320       Mg328   2.140       .  S
O320        C323   1.238       .  S
H321        C323   1.082       .  S
H322        C325   1.081       .  S
O327       Mg334   2.331   1_455  S
C330        O335   1.272       .  A
C330        C637   1.470       .  S
O331        C332   1.263       .  A
C332        C661   1.502       .  S
O337       Mg339   2.088       .  S
O337       Mg345   2.142       .  S
O337        C372   1.232       .  S
C338        O351   1.240       .  S
C338        O375   1.277       .  A
C338        H377   1.082       .  S
Mg339       O368   2.131       .  S
Mg339       O383   2.287       .  S
Mg339       O379   2.168       .  S
Mg339       O350   2.295       .  S
O340        C361   1.266   1_455  A
O340       Mg382   2.193   1_455  S
O340       Mg365   2.244       .  S
O341        C372   1.263       .  A
O341       Mg365   2.273       .  S
C342        O344   1.282       .  A
C342        O356   1.279       .  A
C342        C652   1.496       .  S
O343        C371   1.269       .  A
O343       Mg345   2.284       .  S
O344       Mg376   2.327       .  S
Mg345       O351   2.113       .  S
Mg345       O359   2.269       .  S
Mg345       O347   2.330       .  S
C346        O384   1.271       .  A
C346        O352   1.265       .  A
C346        C628   1.475       .  S
O347        C354   1.279       .  A
H348        C361   1.083       .  S
C349        O363   1.239       .  S
C349        O364   1.278       .  A
C349        H374   1.082       .  S
O350        C373   1.273       .  A
O351       Mg365   2.129       .  S
O352       Mg382   2.275       .  S
C353        O366   1.270       .  A
C353        O358   1.254       .  A
C353        C748   1.494       .  S
C354        O381   1.267       .  A
C354        C880   1.481       .  S
Mg355       O362   2.160       .  S
Mg355       O363   2.152       .  S
Mg355       O356   2.323       .  S
Mg355       O357   2.358   1_455  S
Mg355       O384   2.302   1_455  S
O357        C361   1.277       .  A
O358       Mg365   2.229   1_655  S
O359        C378   1.275       .  A
O360        C380   1.293       .  A
O360       Mg376   2.448       .  S
O362       Mg376   2.172       .  S
O362        C373   1.240       .  S
O363       Mg382   2.193   1_455  S
O364       Mg376   2.343       .  S
Mg365       O381   2.201       .  S
O366       Mg382   2.369       .  S
H367        C372   1.082       .  S
O368       Mg376   2.133       .  S
O368        C371   1.237       .  S
H369        C371   1.082       .  S
H370        C373   1.081       .  S
O375       Mg382   2.338   1_455  S
C378        O383   1.272       .  A
C378        C784   1.468       .  S
O379        C380   1.262       .  A
C380        C733   1.507       .  S
O385       Mg387   2.101       .  S
O385       Mg393   2.128       .  S
O385        C420   1.234       .  S
C386        O399   1.239       .  S
C386        O423   1.277   1_565  A
C386        H425   1.082       .  S
Mg387       O416   2.133       .  S
Mg387       O431   2.301       .  S
Mg387       O427   2.168       .  S
Mg387       O398   2.295       .  S
O388       Mg430   2.120       .  S
O388       Mg413   2.141       .  S
O388        C409   1.242       .  S
O389        C420   1.267   1_545  A
O389       Mg413   2.297       .  S
C390        O392   1.290       .  A
C390        O404   1.274       .  A
C390        C613   1.526       .  S
O391        C419   1.274       .  A
O391       Mg393   2.305       .  S
O392       Mg424   2.390       .  S
Mg393       O399   2.128       .  S
Mg393       O407   2.260       .  S
Mg393       O395   2.365       .  S
C394        O432   1.269       .  A
C394        O400   1.260       .  A
C394        C976   1.469       .  S
O395        C402   1.279   1_565  A
H396        C409   1.079       .  S
C397        O412   1.276       .  A
C397        H422   1.084       .  S
C397        O411   1.266   1_565  A
O398        C421   1.273       .  A
O399       Mg413   2.108   1_565  S
O400       Mg430   2.265       .  S
C401        O414   1.265       .  A
C401        O406   1.252       .  A
C401        C676   1.491       .  S
C402        O429   1.256       .  A
C402        C808   1.467       .  S
Mg403       O410   2.138   1_545  S
Mg403       O404   2.302   1_545  S
Mg403       O405   2.357       .  S
Mg403       O432   2.313       .  S
Mg403       O411   2.201       .  S
O405        C409   1.282       .  A
O406       Mg413   2.212       .  S
O407        C426   1.273       .  A
O408        C428   1.298       .  A
O408       Mg424   2.470       .  S
O410       Mg424   2.176       .  S
O410        C421   1.239       .  S
O411       Mg430   2.265       .  S
O412       Mg424   2.347       .  S
Mg413       O429   2.193       .  S
O414       Mg430   2.351       .  S
H415        C420   1.081       .  S
O416       Mg424   2.174       .  S
O416        C419   1.239       .  S
H417        C419   1.082       .  S
H418        C421   1.081       .  S
O423       Mg430   2.342       .  S
C426        O431   1.273       .  A
C426        C604   1.472       .  S
O427        C428   1.261       .  A
C428        C664   1.506       .  S
O433       Mg435   2.092       .  S
O433       Mg441   2.135       .  S
O433        C468   1.232       .  S
C434        O447   1.239       .  S
C434        O471   1.277   1_565  A
C434        H473   1.082       .  S
Mg435       O464   2.133       .  S
Mg435       O479   2.293       .  S
Mg435       O475   2.171       .  S
Mg435       O446   2.296       .  S
O436        C457   1.269       .  A
O436       Mg478   2.191       .  S
O436       Mg461   2.235       .  S
O437        C468   1.263       .  A
O437       Mg461   2.274   1_565  S
C438        O440   1.287       .  A
C438        O452   1.281       .  A
C438        C616   1.525       .  S
O439        C467   1.273       .  A
O439       Mg441   2.297       .  S
O440       Mg472   2.367       .  S
Mg441       O447   2.109       .  S
Mg441       O455   2.253       .  S
Mg441       O443   2.340       .  S
C442        O480   1.271       .  A
C442        O448   1.262       .  A
C442        C592   1.489       .  S
O443        C450   1.279       .  A
H444        C457   1.083       .  S
C445        O460   1.278       .  A
C445        H470   1.083       .  S
C445        O459   1.268       .  A
O446        C469   1.273       .  A
O447       Mg461   2.129   1_565  S
O448       Mg478   2.263       .  S
C449        O462   1.268       .  A
C449        O454   1.256       .  A
C449        C712   1.484       .  S
C450        O477   1.267   1_565  A
C450        C796   1.484       .  S
Mg451       O458   2.138   1_545  S
Mg451       O452   2.328   1_545  S
Mg451       O453   2.370       .  S
Mg451       O480   2.323       .  S
Mg451       O459   2.219   1_545  S
O453        C457   1.280       .  A
O454       Mg461   2.243       .  S
O455        C474   1.272       .  A
O456        C476   1.296       .  A
O456       Mg472   2.463       .  S
O458       Mg472   2.161       .  S
O458        C469   1.240       .  S
O459       Mg478   2.272   1_565  S
O460       Mg472   2.357       .  S
Mg461       O477   2.199       .  S
O462       Mg478   2.346       .  S
H463        C468   1.081       .  S
O464       Mg472   2.159       .  S
O464        C467   1.240       .  S
H465        C467   1.082       .  S
H466        C469   1.081       .  S
O471       Mg478   2.332       .  S
C474        O479   1.273       .  A
C474        C925   1.469       .  S
O475        C476   1.263       .  A
C476        C697   1.506       .  S
O481       Mg483   2.092       .  S
O481       Mg489   2.135       .  S
O481        C516   1.233       .  S
C482        O495   1.240       .  S
C482        O519   1.277       .  A
C482        H521   1.082       .  S
Mg483       O512   2.137       .  S
Mg483       O527   2.309       .  S
Mg483       O523   2.163       .  S
Mg483       O494   2.294       .  S
O484        C505   1.269       .  A
O484       Mg526   2.196       .  S
O484       Mg509   2.233       .  S
O485        C516   1.263       .  A
O485       Mg509   2.275       .  S
C486        O488   1.285       .  A
C486        O500   1.279       .  A
C486        C580   1.516       .  S
O487        C515   1.272       .  A
O487       Mg489   2.294       .  S
O488       Mg520   2.359   1_556  S
Mg489       O495   2.107       .  S
Mg489       O503   2.261       .  S
Mg489       O491   2.328       .  S
C490        O528   1.270       .  A
C490        O496   1.261   1_556  A
C490        C601   1.468       .  S
O491        C498   1.281       .  A
H492        C505   1.083       .  S
C493        O508   1.276       .  A
C493        H518   1.084       .  S
C493        O507   1.265   1_556  A
O494        C517   1.273       .  A
O495       Mg509   2.136       .  S
O496       Mg526   2.266       .  S
C497        O510   1.267       .  A
C497        O502   1.255       .  A
C497        C853   1.483       .  S
C498        O525   1.264       .  A
C498        C760   1.481       .  S
Mg499       O506   2.141       .  S
Mg499       O500   2.312   1_554  S
Mg499       O501   2.365       .  S
Mg499       O528   2.307   1_554  S
Mg499       O507   2.220       .  S
O501        C505   1.280       .  A
O502       Mg509   2.239       .  S
O503        C522   1.274       .  A
O504        C524   1.293       .  A
O504       Mg520   2.442       .  S
O506       Mg520   2.176       .  S
O506        C517   1.241       .  S
O507       Mg526   2.262       .  S
O508       Mg520   2.349   1_556  S
Mg509       O525   2.198       .  S
O510       Mg526   2.333       .  S
H511        C516   1.083       .  S
O512       Mg520   2.160       .  S
O512        C515   1.239       .  S
H513        C515   1.082       .  S
H514        C517   1.081       .  S
O519       Mg526   2.331       .  S
C522        O527   1.275       .  A
C522        C625   1.474       .  S
O523        C524   1.263       .  A
C524        C844   1.507       .  S
O529       Mg531   2.097       .  S
O529       Mg537   2.144       .  S
O529        C564   1.233       .  S
C530        O543   1.238       .  S
C530        O567   1.274       .  A
C530        H569   1.082       .  S
Mg531       O560   2.143       .  S
Mg531       O575   2.310       .  S
Mg531       O571   2.155       .  S
Mg531       O542   2.293       .  S
O532       Mg574   2.103       .  S
O532       Mg557   2.141       .  S
O532        C553   1.239       .  S
O533        C564   1.264       .  A
O533       Mg557   2.271       .  S
C534        O536   1.286       .  A
C534        O548   1.279       .  A
C534        C577   1.504       .  S
O535        C563   1.268       .  A
O535       Mg537   2.287       .  S
O536       Mg568   2.358       .  S
Mg537       O543   2.100       .  S
Mg537       O551   2.229       .  S
Mg537       O539   2.300       .  S
C538        O576   1.271       .  A
C538        O544   1.265       .  A
C538        C640   1.472       .  S
O539        C546   1.275       .  A
H540        C553   1.079       .  S
C541        O555   1.238       .  S
C541        O556   1.278       .  A
C541        H566   1.081       .  S
O542        C565   1.272       .  A
O543       Mg557   2.142       .  S
O544       Mg574   2.273       .  S
C545        O558   1.273       .  A
C545        O550   1.254       .  A
C545        C964   1.485       .  S
C546        O573   1.264       .  A
C546        C688   1.478       .  S
Mg547       O554   2.156       .  S
Mg547       O555   2.144       .  S
Mg547       O548   2.322       .  S
Mg547       O549   2.341       .  S
Mg547       O576   2.296       .  S
O549        C553   1.278       .  A
O550       Mg557   2.234       .  S
O551        C570   1.270       .  A
O552        C572   1.295       .  A
O552       Mg568   2.452       .  S
O554       Mg568   2.169       .  S
O554        C565   1.239       .  S
O555       Mg574   2.210       .  S
O556       Mg568   2.342       .  S
Mg557       O573   2.209       .  S
O558       Mg574   2.375       .  S
H559        C564   1.082       .  S
O560       Mg568   2.145       .  S
O560        C563   1.235       .  S
H561        C563   1.083       .  S
H562        C565   1.081       .  S
O567       Mg574   2.324       .  S
C570        O575   1.273       .  A
C570        C589   1.464       .  S
O571        C572   1.259       .  A
C572        C952   1.484       .  S
C577        C578   1.411       .  A
C577        C582   1.414       .  A
C578        H587   1.083       .  S
C578        C579   1.420       .  A
C579        C580   1.421       .  A
C579        S583   1.797       .  S
C580        C581   1.412       .  A
C581        H588   1.084       .  S
C581        C582   1.402       .  A
C582        S584   1.805       .  S
S583        H586   1.407       .  S
S584        H585   1.407       .  S
C589        C590   1.402       .  A
C589        C594   1.405       .  A
C590        H599   1.084       .  S
C590        C591   1.404       .  A
C591        C592   1.417       .  A
C591        S595   1.798       .  S
C592        C593   1.410       .  A
C593        H600   1.083       .  S
C593        C594   1.389       .  A
C594        S596   1.807       .  S
S595        H598   1.407       .  S
S596        H597   1.407       .  S
C601        C602   1.404       .  A
C601        C606   1.412       .  A
C602        H611   1.084       .  S
C602        C603   1.398       .  A
C603        C604   1.411       .  A
C603        S607   1.801       .  S
C604        C605   1.402       .  A
C605        H612   1.084       .  S
C605        C606   1.399       .  A
C606        S608   1.804       .  S
S607        H610   1.406       .  S
S608        H609   1.406       .  S
C613        C614   1.413       .  A
C613        C618   1.429       .  A
C614        H623   1.083       .  S
C614        C615   1.422       .  A
C615        C616   1.423       .  A
C615        S619   1.798       .  S
C616        C617   1.408       .  A
C617        H624   1.082   1_565  S
C617        C618   1.409       .  A
C618        S620   1.813   1_565  S
S619        H622   1.407       .  S
S620        H621   1.402       .  S
C625        C626   1.402       .  A
C625        C630   1.413       .  A
C626        H635   1.084       .  S
C626        C627   1.398       .  A
C627        C628   1.412       .  A
C627        S631   1.801       .  S
C628        C629   1.405       .  A
C629        H636   1.084       .  S
C629        C630   1.401       .  A
C630        S632   1.804       .  S
S631        H634   1.407       .  S
S632        H633   1.406       .  S
C637        C638   1.401       .  A
C637        C642   1.411       .  A
C638        H647   1.084       .  S
C638        C639   1.398       .  A
C639        C640   1.413       .  A
C639        S643   1.804       .  S
C640        C641   1.404       .  A
C641        H648   1.084       .  S
C641        C642   1.400       .  A
C642        S644   1.803       .  S
S643        H646   1.407       .  S
S644        H645   1.406       .  S
C649        C650   1.413       .  A
C649        C654   1.418       .  A
C650        H659   1.083       .  S
C650        C651   1.401       .  A
C651        C652   1.411       .  A
C651        S655   1.805       .  S
C652        C653   1.410       .  A
C653        H660   1.083       .  S
C653        C654   1.416       .  A
C654        S656   1.799       .  S
S655        H658   1.407       .  S
S656        H657   1.407       .  S
C661        C662   1.394       .  A
C661        C666   1.431       .  A
C662        H671   1.084       .  S
C662        C663   1.405       .  A
C663        C664   1.434       .  A
C663        S667   1.806       .  S
C664        C665   1.397       .  A
C665        H672   1.082       .  S
C665        C666   1.413       .  A
C666        S668   1.810       .  S
S667        H670   1.408       .  S
S668        H669   1.407       .  S
C673        C674   1.405       .  A
C673        C678   1.409       .  A
C674        H683   1.084       .  S
C674        C675   1.407       .  A
C675        C676   1.417       .  A
C675        S679   1.800       .  S
C676        C677   1.409       .  A
C677        H684   1.084       .  S
C677        C678   1.397       .  A
C678        S680   1.804       .  S
S679        H682   1.408       .  S
S680        H681   1.407       .  S
C685        C686   1.398       .  A
C685        C690   1.420       .  A
C686        H695   1.084       .  S
C686        C687   1.394       .  A
C687        C688   1.417       .  A
C687        S691   1.800       .  S
C688        C689   1.400       .  A
C689        H696   1.083       .  S
C689        C690   1.395       .  A
C690        S692   1.810       .  S
S691        H694   1.408       .  S
S692        H693   1.407       .  S
C697        C698   1.422       .  A
C697        C702   1.405       .  A
C698        H707   1.084       .  S
C698        C699   1.409       .  A
C699        C700   1.407       .  A
C699        S703   1.799       .  S
C700        C701   1.423       .  A
C701        H708   1.084       .  S
C701        C702   1.408       .  A
C702        S704   1.798       .  S
S703        H706   1.407       .  S
S704        H705   1.406       .  S
C709        C710   1.409       .  A
C709        C714   1.418       .  A
C710        H719   1.084       .  S
C710        C711   1.399       .  A
C711        C712   1.412       .  A
C711        S715   1.804       .  S
C712        C713   1.405       .  A
C713        H720   1.084       .  S
C713        C714   1.409       .  A
C714        S716   1.798       .  S
S715        H718   1.407       .  S
S716        H717   1.408       .  S
C721        C722   1.412       .  A
C721        C726   1.419       .  A
C722        H731   1.083       .  S
C722        C723   1.403       .  A
C723        C724   1.413       .  A
C723        S727   1.805       .  S
C724        C725   1.410       .  A
C725        H732   1.083       .  S
C725        C726   1.416       .  A
C726        S728   1.799       .  S
S727        H730   1.407       .  S
S728        H729   1.407       .  S
C733        C734   1.422       .  A
C733        C738   1.407       .  A
C734        H743   1.084       .  S
C734        C735   1.407       .  A
C735        C736   1.408       .  A
C735        S739   1.799       .  S
C736        C737   1.422       .  A
C737        H744   1.084       .  S
C737        C738   1.406       .  A
C738        S740   1.799       .  S
S739        H742   1.407       .  S
S740        H741   1.407       .  S
C745        C746   1.403       .  A
C745        C750   1.417       .  A
C746        H755   1.084       .  S
C746        C747   1.401       .  A
C747        C748   1.419       .  A
C747        S751   1.804       .  S
C748        C749   1.407       .  A
C749        H756   1.083       .  S
C749        C750   1.410       .  A
C750        S752   1.799       .  S
S751        H754   1.407       .  S
S752        H753   1.407       .  S
C757        C758   1.397       .  A
C757        C762   1.424       .  A
C758        H767   1.084       .  S
C758        C759   1.393       .  A
C759        C760   1.419       .  A
C759        S763   1.797       .  S
C760        C761   1.399       .  A
C761        H768   1.083       .  S
C761        C762   1.395       .  A
C762        S764   1.810       .  S
S763        H766   1.408       .  S
S764        H765   1.407       .  S
C769        C770   1.401       .  A
C769        C774   1.411       .  A
C770        H779   1.084       .  S
C770        C771   1.397       .  A
C771        C772   1.414       .  A
C771        S775   1.804       .  S
C772        C773   1.403       .  A
C773        H780   1.084       .  S
C773        C774   1.401       .  A
C774        S776   1.802       .  S
S775        H778   1.407       .  S
S776        H777   1.406       .  S
C781        C782   1.403       .  A
C781        C786   1.414       .  A
C782        H791   1.084       .  S
C782        C783   1.399       .  A
C783        C784   1.411       .  A
C783        S787   1.803       .  S
C784        C785   1.400       .  A
C785        H792   1.084       .  S
C785        C786   1.397       .  A
C786        S788   1.804       .  S
S787        H790   1.406       .  S
S788        H789   1.407       .  S
C793        C794   1.411   1_545  A
C793        C798   1.409       .  A
C794        H803   1.083       .  S
C794        C795   1.399       .  A
C795        C796   1.413       .  A
C795        S799   1.810       .  S
C796        C797   1.411   1_565  A
C797        H804   1.084       .  S
C797        C798   1.393       .  A
C798        S800   1.803       .  S
S799        H802   1.406       .  S
S800        H801   1.408       .  S
C805        C806   1.399   1_554  A
C805        C810   1.417       .  A
C806        H815   1.083   1_556  S
C806        C807   1.392       .  A
C807        C808   1.419       .  A
C807        S811   1.811       .  S
C808        C809   1.397       .  A
C809        H816   1.084   1_545  S
C809        C810   1.398   1_556  A
C810        S812   1.800   1_545  S
S811        H814   1.407       .  S
S812        H813   1.408   1_565  S
C817        C818   1.407       .  A
C817        C822   1.415       .  A
C818        H827   1.084   1_554  S
C818        C819   1.397       .  A
C819        C820   1.409       .  A
C819        S823   1.802       .  S
C820        C821   1.401       .  A
C821        H828   1.084       .  S
C821        C822   1.400       .  A
C822        S824   1.799       .  S
S823        H826   1.405       .  S
S824        H825   1.407       .  S
C829        C830   1.408       .  A
C829        C834   1.424       .  A
C830        H839   1.083       .  S
C830        C831   1.413       .  A
C831        C832   1.419       .  A
C831        S835   1.801       .  S
C832        C833   1.399       .  A
C833        H840   1.084       .  S
C833        C834   1.399       .  A
C834        S836   1.802       .  S
S835        H838   1.405       .  S
S836        H837   1.404       .  S
C841        C842   1.418       .  A
C841        C846   1.404       .  A
C842        H851   1.084       .  S
C842        C843   1.407       .  A
C843        C844   1.408       .  A
C843        S847   1.798       .  S
C844        C845   1.423       .  A
C845        H852   1.083       .  S
C845        C846   1.402       .  A
C846        S848   1.801       .  S
S847        H850   1.407       .  S
S848        H849   1.407       .  S
C853        C854   1.405       .  A
C853        C858   1.414       .  A
C854        H863   1.084       .  S
C854        C855   1.400       .  A
C855        C856   1.415       .  A
C855        S859   1.807       .  S
C856        C857   1.405       .  A
C857        H864   1.084       .  S
C857        C858   1.404       .  A
C858        S860   1.799       .  S
S859        H862   1.407       .  S
S860        H861   1.407       .  S
C865        C866   1.399       .  A
C865        C870   1.410       .  A
C866        H875   1.084       .  S
C866        C867   1.397       .  A
C867        C868   1.416       .  A
C867        S871   1.805       .  S
C868        C869   1.403       .  A
C869        H876   1.084       .  S
C869        C870   1.400       .  A
C870        S872   1.802       .  S
S871        H874   1.407       .  S
S872        H873   1.406       .  S
C877        C878   1.411       .  A
C877        C882   1.410   1_455  A
C878        H887   1.084       .  S
C878        C879   1.393       .  A
C879        C880   1.411       .  A
C879        S883   1.803       .  S
C880        C881   1.411       .  A
C881        H888   1.084   1_455  S
C881        C882   1.394   1_455  A
C882        S884   1.803       .  S
S883        H886   1.408       .  S
S884        H885   1.408       .  S
C889        C890   1.402       .  A
C889        C894   1.414       .  A
C890        H899   1.084       .  S
C890        C891   1.396       .  A
C891        C892   1.410       .  A
C891        S895   1.801       .  S
C892        C893   1.403       .  A
C893        H900   1.084       .  S
C893        C894   1.400       .  A
C894        S896   1.804       .  S
S895        H898   1.405       .  S
S896        H897   1.407       .  S
C901        C902   1.394       .  A
C901        C906   1.422       .  A
C902        H911   1.085       .  S
C902        C903   1.395       .  A
C903        C904   1.425       .  A
C903        S907   1.808       .  S
C904        C905   1.404       .  A
C905        H912   1.083       .  S
C905        C906   1.414       .  A
C906        S908   1.803       .  S
S907        H910   1.407       .  S
S908        H909   1.407       .  S
C913        C914   1.408       .  A
C913        C918   1.414       .  A
C914        H923   1.084       .  S
C914        C915   1.411       .  A
C915        C916   1.417       .  A
C915        S919   1.798       .  S
C916        C917   1.406       .  A
C917        H924   1.084       .  S
C917        C918   1.395       .  A
C918        S920   1.805       .  S
S919        H922   1.407       .  S
S920        H921   1.407       .  S
C925        C926   1.402       .  A
C925        C930   1.412       .  A
C926        H935   1.084       .  S
C926        C927   1.397       .  A
C927        C928   1.411       .  A
C927        S931   1.803       .  S
C928        C929   1.403       .  A
C929        H936   1.084       .  S
C929        C930   1.398       .  A
C930        S932   1.804       .  S
S931        H934   1.407       .  S
S932        H933   1.407       .  S
C937        C938   1.401   1_455  A
C937        C942   1.423       .  A
C938        H947   1.084       .  S
C938        C939   1.395       .  A
C939        C940   1.417   1_655  A
C939        S943   1.804       .  S
C940        C941   1.399       .  A
C941        H948   1.083       .  S
C941        C942   1.393       .  A
C942        S944   1.812       .  S
S943        H946   1.408       .  S
S944        H945   1.407       .  S
C949        C950   1.408       .  A
C949        C954   1.418       .  A
C950        H959   1.083       .  S
C950        C951   1.418       .  A
C951        C952   1.420       .  A
C951        S955   1.801       .  S
C952        C953   1.402       .  A
C953        H960   1.085       .  S
C953        C954   1.399       .  A
C954        S956   1.808       .  S
S955        H958   1.406       .  S
S956        H957   1.407       .  S
C961        C962   1.408       .  A
C961        C966   1.418       .  A
C962        H971   1.083       .  S
C962        C963   1.411       .  A
C963        C964   1.416       .  A
C963        S967   1.802       .  S
C964        C965   1.403       .  A
C965        H972   1.084       .  S
C965        C966   1.399       .  A
C966        S968   1.805       .  S
S967        H970   1.406       .  S
S968        H969   1.407       .  S
C973        C974   1.403       .  A
C973        C978   1.412       .  A
C974        H983   1.084       .  S
C974        C975   1.400       .  A
C975        C976   1.412       .  A
C975        S979   1.803       .  S
C976        C977   1.402       .  A
C977        H984   1.084       .  S
C977        C978   1.398       .  A
C978        S980   1.802       .  S
S979        H982   1.407       .  S
S980        H981   1.406       .  S
C985        C986   1.399       .  A
C985        C990   1.420       .  A
C986        H995   1.084       .  S
C986        C987   1.397       .  A
C987        C988   1.421       .  A
C987        S991   1.801       .  S
C988        C989   1.408       .  A
C989        H996   1.083       .  S
C989        C990   1.415       .  A
C990        S992   1.802       .  S
S991        H994   1.405       .  S
S992        H993   1.405       .  S
C997        C998   1.402       .  A
C997       C1002   1.414       .  A
C998       H1007   1.084       .  S
C998        C999   1.400       .  A
C999       C1000   1.413       .  A
C999       S1003   1.804       .  S
C1000      C1001   1.402       .  A
C1001      H1008   1.084       .  S
C1001      C1002   1.401       .  A
C1002      S1004   1.803       .  S
S1003      H1006   1.407       .  S
S1004      H1005   1.407       .  S
