geometry optimzed in LAMMPS
_audit_creation_date              2020-12-01 
_audit_creation_method            'lammps2cif' 
_symmetry_space_group_name_H-M    'P1' 
_symmetry_Int_Tables_number       1 
_symmetry_cell_setting            triclinic 
loop_ 
_symmetry_equiv_pos_as_xyz 
  x,y,z 
_cell_length_a                    52.74223144 
_cell_length_b                    52.7628094987256 
_cell_length_c                    36.780007701177254 
_cell_angle_alpha                 89.96149620165859 
_cell_angle_beta                  89.99815505447651 
_cell_angle_gamma                 120.47929817924188 
loop_ 
_atom_site_label 
_atom_site_type_symbol 
_atom_site_fract_x 
_atom_site_fract_y 
_atom_site_fract_z 
_atom_site_charge 
Fe1        Fe  0.33222167  0.29769384  0.61350390     1.65800
Fe2        Fe  0.40627543  0.33452930  0.61117838     1.73200
Fe3        Fe  0.36825056  0.26973758  0.57077767     1.54400
O4          O  0.34415986  0.24039960  0.61101454    -0.81100
O5          O  0.42790099  0.33163787  0.56414457    -0.79400
O6          O  0.30956301  0.25142917  0.62089576    -0.83600
O7          O  0.31700048  0.29118413  0.56174420    -0.78400
O8          O  0.40582623  0.27527157  0.59554752    -0.80200
O9          O  0.39421830  0.36023591  0.58135967    -0.83000
C10         C  0.31375024  0.27076039  0.54080732     0.97800
C11         C  0.31771757  0.23244652  0.61856884     1.05200
O12         O  0.36873490  0.30064528  0.59842835    -1.11900
O13         O  0.39028733  0.34333673  0.65898658    -0.74400
O14         O  0.34569392  0.30439425  0.66661313    -0.77900
O15         O  0.33021625  0.25974143  0.54289309    -0.78600
C16         C  0.36705736  0.32849081  0.67790834     0.96700
O17         O  0.34943205  0.34280631  0.60447843    -0.76500
O18         O  0.41705771  0.30724222  0.64069829    -0.81700
C19         C  0.41850351  0.31967959  0.53303607     0.99300
C20         C  0.41615081  0.28455692  0.62705672     1.05200
O21         O  0.39240375  0.29833768  0.52978128    -0.77300
C22         C  0.37004206  0.36028770  0.58303693     1.03500
Fe23       Fe  0.30671450  0.31518305  0.87892352     1.65800
Fe24       Fe  0.34303308  0.38964202  0.88892158     1.73200
Fe25       Fe  0.27327419  0.34786743  0.92074396     1.54400
O26         O  0.24337115  0.31215474  0.88987944    -0.81100
O27         O  0.34402985  0.40064712  0.94253014    -0.79400
O28         O  0.26747713  0.29955765  0.85095366    -0.83600
O29         O  0.28414705  0.29196644  0.92316999    -0.78400
O30         O  0.27061729  0.37586241  0.88428154    -0.80200
O31         O  0.37172461  0.37452385  0.90520637    -0.83000
C32         C  0.27468398  0.29651596  0.95247723     0.97800
C33         C  0.24372223  0.29627114  0.86414580     1.05200
O34         O  0.30758691  0.35099340  0.89559389    -1.11900
O35         O  0.34670791  0.38218508  0.83379325    -0.74400
O36         O  0.32959294  0.33386519  0.83229631    -0.77900
O37         O  0.27325978  0.31937483  0.95884065    -0.78600
C38         C  0.34254174  0.35900959  0.81766283     0.96700
O39         O  0.34448201  0.32565772  0.90700542    -0.76500
O40         O  0.31796009  0.41015014  0.87612750    -0.81700
C41         C  0.32455915  0.39937757  0.96369694     0.99300
C42         C  0.29040215  0.40173221  0.87556468     1.05200
O43         O  0.29736518  0.38267921  0.95678909    -0.77300
C44         C  0.36782115  0.34943740  0.91474414     1.03500
Fe45       Fe  0.19334684  0.99930967  0.61083756     1.65800
Fe46       Fe  0.16882875  0.04776088  0.60287268     1.73200
Fe47       Fe  0.23191461  0.06130114  0.56384305     1.54400
O48         O  0.25915550  0.04898088  0.59042971    -0.81100
O49         O  0.16489141  0.05498349  0.54945317    -0.79400
O50         O  0.23441576  0.01967083  0.63667165    -0.83600
O51         O  0.21250537  0.99375743  0.56533120    -0.78400
O52         O  0.24328660  0.09194715  0.60304149    -0.80200
O53         O  0.13341122  0.00479124  0.59222276    -0.83000
C54         C  0.21986543  0.00558333  0.53414935     0.97800
C55         C  0.25843461  0.03556612  0.61951034     1.05200
O56         O  0.19782792  0.03603131  0.59290668    -1.11900
O57         O  0.16816089  0.03975174  0.65799522    -0.74400
O58         O  0.17269503  0.99988824  0.65811000    -0.77900
O59         O  0.22115647  0.02949074  0.52590360    -0.78600
C60         C  0.16596560  0.01719951  0.67347519     0.96700
O61         O  0.15824811  0.48298654  0.58349537    -0.76500
O62         O  0.20231006  0.09338615  0.61021381    -0.81700
C63         C  0.18414905  0.07149077  0.52686546     0.99300
C64         C  0.23058557  0.10624775  0.60933887     1.05200
O65         O  0.21101310  0.07869522  0.53105570    -0.77300
C66         C  0.13600800  0.48585675  0.57905306     1.03500
Fe67       Fe  0.18749701  0.48891948  0.87508864     1.65800
Fe68       Fe  0.11446007  0.44454205  0.88523198     1.73200
Fe69       Fe  0.16033504  0.43186408  0.93412587     1.54400
O70         O  0.19240061  0.42956244  0.90370052    -0.81100
O71         O  0.09408680  0.42180592  0.93270667    -0.79400
O72         O  0.21382374  0.46993574  0.86907595    -0.83600
O73         O  0.20718293  0.50714485  0.92274578    -0.78400
O74         O  0.12863128  0.39371060  0.90932106    -0.80200
O75         O  0.12407495  0.48354175  0.91094990    -0.83000
C76         C  0.20892365  0.49555693  0.95185900     0.97800
C77         C  0.21282380  0.44712398  0.88230490     1.05200
O78         O  0.15453541  0.45462166  0.89778621    -1.11900
O79         O  0.12615421  0.46619971  0.83467086    -0.74400
O80         O  0.17038896  0.47324134  0.82503880    -0.77900
O81         O  0.19276924  0.46844426  0.95955752    -0.78600
C82         C  0.14852795  0.47475911  0.81436191     0.96700
O83         O  0.16487185  0.00585735  0.88127069    -0.76500
O84         O  0.10685506  0.40450819  0.86373986    -0.81700
C85         C  0.10288957  0.42269768  0.96494701     0.99300
C86         C  0.11255130  0.38667116  0.88085736     1.05200
O87         O  0.12993258  0.43201658  0.97064974    -0.77300
C88         C  0.14733750  0.00165843  0.90789423     1.03500
Fe89       Fe  0.47863600  0.17757465  0.60145258     1.65800
Fe90       Fe  0.44578636  0.10400444  0.59969337     1.73200
Fe91       Fe  0.40858133  0.13744521  0.57425848     1.54400
O92         O  0.41635690  0.17481506  0.60508918    -0.81100
O93         O  0.43320147  0.09059448  0.54710636    -0.79400
O94         O  0.45646155  0.18817055  0.63850287    -0.83600
O95         O  0.46831877  0.19816552  0.56119055    -0.78400
O96         O  0.38494596  0.11141770  0.61676509    -0.80200
O97         O  0.49043548  0.12412746  0.58062385    -0.83000
C98         C  0.45089055  0.18973327  0.53426100     0.97800
C99         C  0.43498433  0.19123293  0.62932969     1.05200
O100        O  0.44418551  0.13951300  0.59200804    -1.11900
O101        O  0.45947108  0.11614623  0.65308208    -0.74400
O102        O  0.49422119  0.16279589  0.64358322    -0.77900
O103        O  0.42979081  0.16368879  0.53077707    -0.78600
C104        C  0.48179157  0.14008152  0.66363193     0.96700
O105        O  0.01046754  0.16904735  0.57623271    -0.76500
O106        O  0.40033409  0.07917731  0.61718490    -0.81700
C107        C  0.41107058  0.08757004  0.52978213     0.99300
C108        C  0.38051131  0.08601760  0.62368893     1.05200
O109        O  0.39733637  0.10060415  0.54011361    -0.77300
C110        C  0.01182598  0.14565517  0.57597056     1.03500
Fe111      Fe  0.02706719  0.19844094  0.88879079     1.65800
Fe112      Fe  0.06349751  0.16223946  0.88728301     1.73200
Fe113      Fe  0.09131227  0.22584256  0.93389994     1.54400
O114        O  0.09686527  0.25987430  0.90011435    -0.81100
O115        O  0.08599342  0.16159679  0.93340332    -0.79400
O116        O  0.05082511  0.24390019  0.88290875    -0.83600
O117        O  0.01830575  0.20201260  0.94110977    -0.78400
O118        O  0.12404329  0.22362184  0.90556537    -0.80200
O119        O  0.02485443  0.13512050  0.91573032    -0.83000
C120        C  0.03484949  0.22178956  0.96321351     0.97800
C121        C  0.07727201  0.26464608  0.88700076     1.05200
O122        O  0.06111532  0.19613493  0.90274603    -1.11900
O123        O  0.04038322  0.15665667  0.83836692    -0.74400
O124        O  0.03392898  0.19491483  0.83507117    -0.77900
O125        O  0.06248189  0.23274857  0.96403409    -0.78600
C126        C  0.03262362  0.17250519  0.82088525     0.96700
O127        O  0.49846114  0.16471771  0.90408492    -0.76500
O128        O  0.10325299  0.19006986  0.86109483    -0.81700
C129        C  0.08900901  0.17162573  0.96549469     0.99300
C130        C  0.12539931  0.21234068  0.87553383     1.05200
O131        O  0.08727904  0.19442093  0.97142409    -0.77300
C132        C  0.49639760  0.14037803  0.91210945     1.03500
Fe133      Fe  0.18852293  0.18963473  0.38263864     1.65800
Fe134      Fe  0.15727387  0.22105109  0.43062165     1.73200
Fe135      Fe  0.11347617  0.15504862  0.38981728     1.54400
O136        O  0.12296235  0.15338064  0.33494847    -0.81100
O137        O  0.12120326  0.19544271  0.46455683    -0.79400
O138        O  0.17094437  0.16944519  0.33417006    -0.83600
O139        O  0.17618792  0.15052428  0.40748376    -0.78400
O140        O  0.09680176  0.18367403  0.37698504    -0.80200
O141        O  0.18305611  0.21544978  0.46742917    -0.83000
C142        C  0.15185303  0.12772981  0.41496572     0.97800
C143        C  0.14616309  0.15776738  0.31879581     1.05200
O144        O  0.15278547  0.18858501  0.40039645    -1.11900
O145        O  0.19488159  0.25245514  0.40242242    -0.74400
O146        O  0.20484595  0.23016994  0.35794777    -0.77900
O147        O  0.12696001  0.12483220  0.40591073    -0.78600
C148        C  0.20977912  0.25329066  0.37464335     0.96700
O149        O  0.21192885  0.20982871  0.42826253    -0.76500
O150        O  0.13154212  0.22859370  0.39603103    -0.81700
C151        C  0.10110917  0.16855356  0.46710561     0.99300
C152        C  0.10675076  0.21139600  0.38162489     1.05200
O153        O  0.09768469  0.15053634  0.44227305    -0.77300
C154        C  0.20673337  0.21622712  0.45940033     1.03500
Fe155      Fe  0.20227754  0.17281601  0.10912889     1.65800
Fe156      Fe  0.23672175  0.14142526  0.06800630     1.73200
Fe157      Fe  0.16951186  0.09919920  0.10621229     1.54400
O158        O  0.15844567  0.11374235  0.15410746    -0.81100
O159        O  0.20992621  0.11222261  0.02779297    -0.79400
O160        O  0.19526768  0.15923462  0.16187346    -0.83600
O161        O  0.15734755  0.15351429  0.09822518    -0.78400
O162        O  0.19614818  0.08768842  0.13553995    -0.80200
O163        O  0.24082036  0.17556399  0.03600143    -0.83000
C164        C  0.14123147  0.13272422  0.07645360     0.97800
C165        C  0.17185948  0.13713089  0.17315546     1.05200
O166        O  0.20337465  0.13794023  0.09478196    -1.11900
O167        O  0.26799679  0.17239876  0.10380090    -0.74400
O168        O  0.24719206  0.19827478  0.11991574    -0.77900
O169        O  0.14312148  0.10960825  0.07494085    -0.78600
C170        C  0.26975335  0.19561401  0.11692255     0.96700
O171        O  0.20959073  0.18861200  0.05776192    -0.76500
O172        O  0.23579940  0.10792573  0.09888269    -0.81700
C173        C  0.18740843  0.08667342  0.03039783     0.99300
C174        C  0.22091867  0.09119490  0.12527335     1.05200
O175        O  0.17379081  0.07811930  0.06048335    -0.77300
C176        C  0.22889476  0.19132743  0.03520517     1.03500
Fe177      Fe  0.30388012  0.47114293  0.38564398     1.65800
Fe178      Fe  0.27556488  0.40654410  0.43071359     1.73200
Fe179      Fe  0.34390193  0.43735592  0.39260976     1.54400
O180        O  0.34815286  0.45158476  0.33890919    -0.81100
O181        O  0.30168271  0.39839246  0.46620695    -0.79400
O182        O  0.32835937  0.47990560  0.33902290    -0.83600
O183        O  0.33631130  0.00049424  0.40275752    -0.78400
O184        O  0.31906618  0.39288940  0.37409625    -0.80200
O185        O  0.27558094  0.43505810  0.46815575    -0.83000
C186        C  0.36096867  0.00312639  0.41023544     0.97800
C187        C  0.34331678  0.47034987  0.32382854     1.05200
O188        O  0.30779144  0.43801361  0.40240468    -1.11900
O189        O  0.24387279  0.40993704  0.40058327    -0.74400
O190        O  0.26560312  0.44432298  0.35765262    -0.77900
O191        O  0.37008136  0.48086521  0.41328865    -0.78600
C192        C  0.24265186  0.42430959  0.37341651     0.96700
O193        O  0.27924524  0.46888259  0.42892930    -0.76500
O194        O  0.27317296  0.37600603  0.39522378    -0.81700
C195        C  0.32905680  0.40777799  0.46840505     0.99300
C196        C  0.29179186  0.37275466  0.37714332     1.05200
O197        O  0.34655369  0.42401845  0.44396357    -0.77300
C198        C  0.27240632  0.45643757  0.45950111     1.03500
Fe199      Fe  0.32182347  0.01851819  0.10411045     1.65800
Fe200      Fe  0.36182953  0.08825737  0.07693136     1.73200
Fe201      Fe  0.39610639  0.05187535  0.10059651     1.54400
O202        O  0.38513212  0.03768463  0.15343616    -0.81100
O203        O  0.39979695  0.10120512  0.04419122    -0.79400
O204        O  0.33727034  0.00484744  0.14750576    -0.83600
O205        O  0.33218814  0.48587876  0.08870555    -0.78400
O206        O  0.42004759  0.09688900  0.11913064    -0.80200
O207        O  0.33734927  0.06785112  0.03277535    -0.83000
C208        C  0.35519228  0.48515392  0.08034864     0.97800
C209        C  0.36121766  0.01629964  0.16543773     1.05200
O210        O  0.35992601  0.05270810  0.09399601    -1.11900
O211        O  0.32360080  0.08031952  0.10593043    -0.74400
O212        O  0.30984851  0.04066220  0.14001164    -0.77900
O213        O  0.37678953  0.00797679  0.08089326    -0.78600
C214        C  0.30694193  0.06211401  0.13028693     0.96700
O215        O  0.30221748  0.02858758  0.06199369    -0.76500
O216        O  0.38556196  0.10925666  0.12094810    -0.81700
C217        C  0.41250777  0.08758800  0.03241351     0.99300
C218        C  0.41135491  0.11492047  0.12763418     1.05200
O219        O  0.40900693  0.06476477  0.04817128    -0.77300
C220        C  0.31139001  0.04655475  0.03542574     1.03500
Fe221      Fe  0.49129734  0.29918449  0.11073802     1.65800
Fe222      Fe  0.42611914  0.26541394  0.06585366     1.73200
Fe223      Fe  0.45158865  0.33258019  0.10467939     1.54400
O224        O  0.47484013  0.34270554  0.15412600    -0.81100
O225        O  0.42538168  0.29288779  0.02463392    -0.79400
O226        O  0.48397948  0.30665681  0.16284144    -0.83600
O227        O  0.01499199  0.34396637  0.09480357    -0.78400
O228        O  0.41069129  0.30609567  0.13002207    -0.80200
O229        O  0.45646233  0.26080740  0.03607502    -0.83000
C230        C  0.01053046  0.36130637  0.07563980     0.97800
C231        C  0.48531763  0.33006539  0.17331894     1.05200
O232        O  0.45583521  0.29849866  0.09415751    -1.11900
O233        O  0.42426961  0.23357497  0.10294329    -0.74400
O234        O  0.47053461  0.25488308  0.12250598    -0.77900
O235        O  0.49052766  0.35923097  0.07671418    -0.78600
C236        C  0.44532077  0.23226655  0.11858841     0.96700
O237        O  0.50058232  0.29120098  0.06017194    -0.76500
O238        O  0.39258827  0.26671147  0.09313959    -0.81700
C239        C  0.42409008  0.31632008  0.02713413     0.99300
C240        C  0.38935371  0.28193984  0.11758381     1.05200
O241        O  0.42967732  0.32987635  0.05710552    -0.77300
C242        C  0.48419662  0.27236968  0.03688555     1.03500
Fe243      Fe  0.02531954  0.31906204  0.37127619     1.65800
Fe244      Fe  0.07925039  0.34595828  0.43416217     1.73200
Fe245      Fe  0.06586550  0.39158697  0.38629469     1.54400
O246        O  0.04517979  0.38166347  0.33529757    -0.81100
O247        O  0.07451866  0.37338152  0.47081968    -0.79400
O248        O  0.04149855  0.33924690  0.32259473    -0.83600
O249        O  0.49678690  0.34036986  0.38198498    -0.78400
O250        O  0.10593922  0.40071317  0.36463986    -0.80200
O251        O  0.04251052  0.31089984  0.45796318    -0.83000
C252        C  0.50122643  0.35743736  0.40908911     0.97800
C253        C  0.03976974  0.36122124  0.31303073     1.05200
O254        O  0.05721090  0.35163854  0.39688689    -1.11900
O255        O  0.08468792  0.31616811  0.40347439    -0.74400
O256        O  0.04732477  0.29562607  0.36398924    -0.77900
O257        O  0.02654216  0.37965068  0.41120687    -0.78600
C258        C  0.06889829  0.29623513  0.38053431     0.96700
O259        O  0.00672600  0.29529583  0.41644010    -0.76500
O260        O  0.11778987  0.38004523  0.41058536    -0.81700
C261        C  0.08268254  0.40023854  0.46655102     0.99300
C262        C  0.12411225  0.39535857  0.38124847     1.05200
O263        O  0.08731808  0.41073399  0.43474445    -0.77300
C264        C  0.01665862  0.29301930  0.44657396     1.03500
C265        C  0.50166088  0.34365644  0.20766441    -0.04700
C266        C  0.02806174  0.34590681  0.21301934    -0.01900
C267        C  0.04283376  0.35589726  0.24640947     0.03100
C268        C  0.02908661  0.36117621  0.27575987    -0.04700
C269        C  0.50546914  0.36558568  0.26761130    -0.01800
C270        C  0.49169202  0.35674772  0.23318342     0.03100
C271        C  0.04127566  0.33676219  0.18515466     0.37800
C272        C  0.49348632  0.37627851  0.29510467     0.37800
C273        C  0.46627263  0.35945759  0.22508771     0.36200
C274        C  0.07213757  0.36020621  0.25101309     0.36200
N275        N  0.44608449  0.36178493  0.21851747    -0.38600
N276        N  0.09559224  0.36395161  0.25473328    -0.38600
N277        N  0.48396056  0.38489052  0.31699479    -0.38100
N278        N  0.05154071  0.32867047  0.16359388    -0.38100
C279        C  0.43079272  0.14517216  0.14240712    -0.04700
C280        C  0.41656350  0.15653707  0.16346446    -0.01900
C281        C  0.41933389  0.18382979  0.15429713     0.03100
C282        C  0.44191985  0.20326535  0.13050506    -0.04700
C283        C  0.46260194  0.19498668  0.11900509    -0.01800
C284        C  0.45607984  0.16546926  0.12317966     0.03100
C285        C  0.39775322  0.13879099  0.19299149     0.37800
C286        C  0.49028732  0.21635815  0.10256554     0.37800
C287        C  0.47514892  0.15594164  0.10786942     0.36200
C288        C  0.39822090  0.19070667  0.16883010     0.36200
N289        N  0.49066157  0.14844279  0.09618255    -0.38600
N290        N  0.37997603  0.19408596  0.18095111    -0.38600
N291        N  0.51276656  0.23349806  0.09028363    -0.38100
N292        N  0.38371755  0.12471271  0.21727137    -0.38100
C293        C  0.15394396  0.40586031  0.36628901    -0.04700
C294        C  0.16083166  0.38459535  0.35495569    -0.01900
C295        C  0.18999432  0.39061739  0.35599523     0.03100
C296        C  0.21316997  0.41932448  0.36337217    -0.04700
C297        C  0.20656046  0.44200906  0.36889438    -0.01800
C298        C  0.17688605  0.43505157  0.37142105     0.03100
C299        C  0.13775042  0.35625902  0.34238624     0.37800
C300        C  0.23000381  0.47185012  0.37600830     0.37800
C301        C  0.16991265  0.45739942  0.38138530     0.36200
C302        C  0.19539689  0.36639244  0.35341914     0.36200
N303        N  0.16425783  0.47520088  0.38925104    -0.38600
N304        N  0.19862917  0.34631604  0.35269490    -0.38600
N305        N  0.24860410  0.49571436  0.38173799    -0.38100
N306        N  0.11986281  0.33389484  0.33089734    -0.38100
C307        C  0.36047825  0.00457428  0.20237396    -0.04700
C308        C  0.35253582  0.47461417  0.22107917    -0.01900
C309        C  0.34645215  0.46291964  0.25669172     0.03100
C310        C  0.35509905  0.48193766  0.28686991    -0.04700
C311        C  0.36523177  0.01253088  0.26800698    -0.01800
C312        C  0.37161366  0.02384699  0.23236582     0.03100
C313        C  0.34404900  0.45486897  0.19024554     0.37800
C314        C  0.37611746  0.03257344  0.29864501     0.37800
C315        C  0.38919533  0.05536596  0.22672970     0.36200
C316        C  0.33004099  0.43132607  0.26218821     0.36200
N317        N  0.40369063  0.08045710  0.22217539    -0.38600
N318        N  0.31701784  0.40613450  0.26662756    -0.38600
N319        N  0.38501308  0.04870876  0.32291842    -0.38100
N320        N  0.33755149  0.43899990  0.16577773    -0.38100
C321        C  0.35883515  0.26879639  0.13169107    -0.04700
C322        C  0.33790146  0.27272237  0.11259504    -0.01900
C323        C  0.30780308  0.25021898  0.11278667     0.03100
C324        C  0.29945909  0.22170664  0.12636872    -0.04700
C325        C  0.32080020  0.21872927  0.14631094    -0.01800
C326        C  0.34877832  0.24354882  0.15297328     0.03100
C327        C  0.34761852  0.29913609  0.09116660     0.37800
C328        C  0.31635674  0.19023477  0.15536241     0.37800
C329        C  0.36797271  0.24377000  0.18119452     0.36200
C330        C  0.28620364  0.25602883  0.09656903     0.36200
N331        N  0.38363629  0.24578152  0.20449109    -0.38600
N332        N  0.26900220  0.26099425  0.08420265    -0.38600
N333        N  0.31469417  0.16789166  0.16081864    -0.38100
N334        N  0.35534084  0.32015369  0.07390782    -0.38100
C335        C  0.23450953  0.07601289  0.14396197    -0.04700
C336        C  0.25999280  0.09327299  0.16450700    -0.01900
C337        C  0.28370080  0.08793565  0.16292810     0.03100
C338        C  0.28071829  0.06354738  0.14329949    -0.04700
C339        C  0.25216214  0.04211194  0.13119066    -0.01800
C340        C  0.22923512  0.04871745  0.13088220     0.03100
C341        C  0.26124538  0.11646134  0.18687455     0.37800
C342        C  0.24705592  0.01468073  0.11563353     0.37800
C343        C  0.20076382  0.02839165  0.11543322     0.36200
C344        C  0.31078407  0.10755016  0.18142521     0.36200
N345        N  0.17774395  0.01210467  0.10376226    -0.38600
N346        N  0.33184007  0.12380796  0.19705553    -0.38600
N347        N  0.24276670  0.99268599  0.10326861    -0.38100
N348        N  0.26153750  0.13452171  0.20502540    -0.38100
C349        C  0.23538680  0.28230731  0.36396391    -0.04700
C350        C  0.26307280  0.29204980  0.38045137    -0.01900
C351        C  0.28464233  0.32232908  0.38068165     0.03100
C352        C  0.27963668  0.34268005  0.36179206    -0.04700
C353        C  0.25455245  0.33177026  0.33918770    -0.01800
C354        C  0.23169702  0.30201430  0.34184075     0.03100
C355        C  0.26896941  0.27120668  0.39866774     0.37800
C356        C  0.25162957  0.35190473  0.31515080     0.37800
C357        C  0.20373212  0.29218223  0.32399574     0.36200
C358        C  0.31036104  0.33281249  0.40369374     0.36200
N359        N  0.18122077  0.28441525  0.31026120    -0.38600
N360        N  0.33066035  0.34095056  0.42241313    -0.38600
N361        N  0.24943796  0.36801131  0.29582850    -0.38100
N362        N  0.27437525  0.25484940  0.41262923    -0.38100
C363        C  0.15980787  0.14005984  0.20881585    -0.04700
C364        C  0.14683856  0.11671601  0.23427841    -0.01900
C365        C  0.14014635  0.12184852  0.26989034     0.03100
C366        C  0.14558719  0.15002799  0.27993244    -0.04700
C367        C  0.15627486  0.17260134  0.25376702    -0.01800
C368        C  0.16282062  0.16758312  0.21829203     0.03100
C369        C  0.14144252  0.08776757  0.22456263     0.37800
C370        C  0.16215296  0.20166260  0.26401869     0.37800
C371        C  0.17264587  0.19102009  0.19157347     0.36200
C372        C  0.12947731  0.09869536  0.29698205     0.36200
N373        N  0.18051373  0.20970203  0.17029759    -0.38600
N374        N  0.12112849  0.08031105  0.31871984    -0.38600
N375        N  0.16709624  0.22489477  0.27223372    -0.40500
N376        N  0.13685781  0.06456922  0.21675533    -0.38100
C377        C  0.08807504  0.22503840  0.37645763    -0.04700
C378        C  0.07824559  0.23204772  0.40850978    -0.01900
C379        C  0.07360223  0.25601179  0.40961171     0.03100
C380        C  0.07410001  0.27083020  0.37732481    -0.04700
C381        C  0.07865963  0.26035380  0.34387141    -0.01800
C382        C  0.08765689  0.23896566  0.34372365     0.03100
C383        C  0.07330179  0.21508596  0.44136092     0.37800
C384        C  0.07488007  0.27196321  0.30994865     0.37800
C385        C  0.09722325  0.23196733  0.31029296     0.36200
C386        C  0.06858627  0.26531476  0.44477649     0.36200
N387        N  0.10489686  0.22650975  0.28346153    -0.38600
N388        N  0.06514613  0.27229406  0.47332354    -0.38600
N389        N  0.07152201  0.28107876  0.28287879    -0.38100
N390        N  0.06793371  0.20237811  0.46850557    -0.38100
C391        C  0.09628680  0.15693486  0.99616383    -0.04700
C392        C  0.09854360  0.16609861  0.03305028    -0.01900
C393        C  0.11003135  0.15543518  0.06015084     0.03100
C394        C  0.12116695  0.13684108  0.05082319    -0.04700
C395        C  0.11625157  0.12553240  0.01495504    -0.01800
C396        C  0.10258441  0.13419962  0.98858870     0.03100
C397        C  0.08929508  0.18664312  0.04374387     0.37800
C398        C  0.12759363  0.10699583  0.00326595     0.37800
C399        C  0.09576906  0.11962016  0.95343462     0.36200
C400        C  0.11023633  0.16360367  0.09787163     0.36200
N401        N  0.09016993  0.10765969  0.92566535    -0.38600
N402        N  0.11016394  0.16989327  0.12800054    -0.38600
N403        N  0.13657660  0.09255260  0.99233845    -0.38100
N404        N  0.08207540  0.20310851  0.05251952    -0.38100
C405        C  0.47179355  0.12103711  0.93819099    -0.04700
C406        C  0.44573833  0.12291066  0.93989104    -0.01900
C407        C  0.42601413  0.11105886  0.96965999     0.03100
C408        C  0.43244535  0.09845070  0.99954252    -0.04700
C409        C  0.45784861  0.09562759  0.99746725    -0.01800
C410        C  0.47665860  0.10580449  0.96661252     0.03100
C411        C  0.43934526  0.13829124  0.91195371     0.37800
C412        C  0.46633134  0.08444006  0.02839524     0.37800
C413        C  0.50217638  0.10223950  0.96581540     0.36200
C414        C  0.39891428  0.11188567  0.96927722     0.36200
N415        N  0.02737123  0.09787777  0.97634364    -0.38600
N416        N  0.37728577  0.11250566  0.96876189    -0.38600
N417        N  0.47328482  0.07568139  0.05300714    -0.38100
N418        N  0.43392340  0.15105711  0.89077078    -0.38100
C419        C  0.02103653  0.23465915  0.98496915    -0.04700
C420        C  0.99203105  0.21611056  0.99718207    -0.01900
C421        C  0.48727747  0.23053091  0.01182485     0.03100
C422        C  0.49827604  0.26119064  0.01275891    -0.04700
C423        C  0.01613699  0.27745088  0.99569646    -0.01800
C424        C  0.03333184  0.26550123  0.98486730     0.03100
C425        C  0.49628279  0.18937895  0.00243619     0.37800
C426        C  0.02803714  0.30900249  0.99327947     0.37800
C427        C  0.06365763  0.28520482  0.97409062     0.36200
C428        C  0.45795882  0.20955195  0.02493499     0.36200
N429        N  0.08792909  0.30124684  0.96619857    -0.38600
N430        N  0.43454991  0.19259318  0.03497079    -0.38600
N431        N  0.03759388  0.33411853  0.99121309    -0.38100
N432        N  0.48970168  0.16508715  0.00659008    -0.38100
C433        C  0.49262890  0.14292536  0.70162931    -0.04700
C434        C  0.47523887  0.14362366  0.73011568    -0.01900
C435        C  0.99415592  0.16474378  0.77467613     0.03100
C436        C  0.01995010  0.16397852  0.78360827    -0.04700
C437        C  0.03357528  0.15586490  0.75659307    -0.01800
C438        C  0.02180311  0.14907869  0.72098637     0.03100
C439        C  0.44733032  0.14139774  0.72178919     0.37800
C440        C  0.06052729  0.15599650  0.76486504     0.37800
C441        C  0.03722699  0.14324096  0.69257060     0.36200
C442        C  0.97972123  0.17323290  0.80163966     0.36200
N443        N  0.04974014  0.13892169  0.66984475    -0.38600
N444        N  0.96833522  0.18033789  0.82285744    -0.38600
N445        N  0.08203708  0.15614049  0.77162075    -0.38100
N446        N  0.42552681  0.14042678  0.71465043    -0.38100
C447        C  0.03632745  0.14637553  0.55401448    -0.04700
C448        C  0.06556540  0.16991680  0.55811701    -0.01900
C449        C  0.08741205  0.17515731  0.53182986     0.03100
C450        C  0.07999296  0.15826803  0.49936029    -0.04700
C451        C  0.05123399  0.13286679  0.49721385    -0.01800
C452        C  0.03017507  0.12646224  0.52513418     0.03100
C453        C  0.07325799  0.18878072  0.58976642     0.37800
C454        C  0.04222982  0.11376481  0.46565033     0.37800
C455        C  0.00188272  0.09950624  0.52349856     0.36200
C456        C  0.11757889  0.19813871  0.53848135     0.36200
N457        N  0.48982133  0.07870797  0.52170244    -0.38600
N458        N  0.14168371  0.21633285  0.54382120    -0.38600
N459        N  0.03475739  0.09832650  0.44062749    -0.38100
N460        N  0.07942849  0.20381703  0.61506283    -0.38100
C461        C  0.45589271  0.21186470  0.50696984    -0.04700
C462        C  0.45829380  0.23831672  0.51873918    -0.01900
C463        C  0.47633036  0.26438776  0.49976246     0.03100
C464        C  0.99799467  0.26610602  0.46687106    -0.04700
C465        C  0.99245653  0.23889874  0.45222690    -0.01800
C466        C  0.97955673  0.21370473  0.47416469     0.03100
C467        C  0.43896437  0.23739606  0.54706419     0.37800
C468        C  0.99972064  0.23653538  0.41483910     0.37800
C469        C  0.97826044  0.18689732  0.46210762     0.36200
C470        C  0.48306465  0.29252866  0.51469140     0.36200
N471        N  0.97731130  0.16556100  0.45245303    -0.38600
N472        N  0.48886140  0.31510072  0.52671039    -0.38600
N473        N  0.00441699  0.23378114  0.38481663    -0.38100
N474        N  0.42171039  0.23557772  0.56784464    -0.38100
C475        C  0.38039067  0.02811908  0.43556907    -0.04700
C476        C  0.37877693  0.05427538  0.43574537    -0.01900
C477        C  0.38874641  0.07360043  0.46606518     0.03100
C478        C  0.40111199  0.06764682  0.49675852    -0.04700
C479        C  0.40456686  0.04255973  0.49544076    -0.01800
C480        C  0.39478580  0.02338094  0.46500353     0.03100
C481        C  0.36595125  0.06113098  0.40508844     0.37800
C482        C  0.41598815  0.03470129  0.52667437     0.37800
C483        C  0.39523196  0.49228993  0.48421972     0.36200
C484        C  0.38549097  0.09931821  0.46568286     0.36200
N485        N  0.39524231  0.47054672  0.48817915    -0.38600
N486        N  0.38256671  0.11962063  0.46528654    -0.38600
N487        N  0.42486137  0.02814242  0.55155995    -0.38100
N488        N  0.35554921  0.06677123  0.38098976    -0.38100
C489        C  0.08486656  0.29565828  0.87775995    -0.04700
C490        C  0.11414101  0.31769404  0.86914800    -0.01900
C491        C  0.12100542  0.34669827  0.86171965     0.03100
C492        C  0.10061644  0.35575426  0.86914514    -0.04700
C493        C  0.07151196  0.33436722  0.87792150    -0.01800
C494        C  0.06322594  0.30430991  0.88046809     0.03100
C495        C  0.13832206  0.31218941  0.87219246     0.37800
C496        C  0.05085748  0.34371875  0.88780531     0.37800
C497        C  0.03293888  0.28317972  0.88980427     0.36200
C498        C  0.14997568  0.36794941  0.84837366     0.36200
N499        N  0.00873802  0.26652364  0.89731694    -0.38600
N500        N  0.17298064  0.38447279  0.83701922    -0.38600
N501        N  0.03462026  0.35135357  0.89613176    -0.38100
N502        N  0.15820948  0.30889716  0.87630776    -0.38100
C503        C  0.15511309  0.02596965  0.93593642    -0.04700
C504        C  0.18230601  0.05312906  0.93440569    -0.01900
C505        C  0.19300660  0.07244237  0.96485975     0.03100
C506        C  0.17619765  0.06611287  0.99741583    -0.04700
C507        C  0.14779812  0.04018062  0.99763103    -0.01800
C508        C  0.13739073  0.02075749  0.96739110     0.03100
C509        C  0.19946115  0.06212978  0.90113098     0.37800
C510        C  0.12854991  0.03285570  0.02900465     0.37800
C511        C  0.10771919  0.99559675  0.96912387     0.36200
C512        C  0.22205786  0.09848793  0.96234993     0.36200
N513        N  0.09369786  0.47718102  0.98300516    -0.38600
N514        N  0.24527479  0.11912386  0.96001015    -0.38600
N515        N  0.11307509  0.02681270  0.05388048    -0.38100
N516        N  0.21320242  0.06980780  0.87464887    -0.38100
C517        C  0.23365502  0.51309376  0.97584479    -0.04700
C518        C  0.23920962  0.02676879  0.99786160    -0.01900
C519        C  0.26505925  0.04321788  0.01767175     0.03100
C520        C  0.29037805  0.04259099  0.00748420    -0.04700
C521        C  0.28473510  0.52652062  0.98296651    -0.01800
C522        C  0.26213216  0.52463818  0.96110440     0.03100
C523        C  0.21130896  0.02136580  0.01204055     0.37800
C524        C  0.31101694  0.52994332  0.96554256     0.37800
C525        C  0.26757739  0.53154134  0.92259444     0.36200
C526        C  0.26705806  0.06374528  0.04505341     0.36200
N527        N  0.27207895  0.53721171  0.89200323    -0.38600
N528        N  0.26949344  0.08175153  0.06504275    -0.38600
N529        N  0.33138102  0.53157250  0.95136287    -0.38100
N530        N  0.18874221  0.01622638  0.02335586    -0.38100
C531        C  0.08041499  0.41158751  0.99590444    -0.04700
C532        C  0.08722633  0.40577595  0.03126527    -0.01900
C533        C  0.06498900  0.39213934  0.05832226     0.03100
C534        C  0.03508390  0.38262708  0.05054975    -0.04700
C535        C  0.02875043  0.39061564  0.01637842    -0.01800
C536        C  0.05117671  0.40568822  0.99001312     0.03100
C537        C  0.11700460  0.41331797  0.04034916     0.37800
C538        C  0.99881815  0.38208301  0.00686210     0.37800
C539        C  0.04365263  0.41556691  0.95698833     0.36200
C540        C  0.07337923  0.38851797  0.09466894     0.36200
N541        N  0.03756965  0.42371345  0.93103415    -0.38600
N542        N  0.08054917  0.38616021  0.12357504    -0.38600
N543        N  0.48669438  0.39483890  0.01502131    -0.38100
N544        N  0.14069524  0.41924327  0.04798533    -0.38100
C545        C  0.17404580  0.08307738  0.49594124    -0.04700
C546        C  0.15158235  0.08995230  0.50217029    -0.01900
C547        C  0.14057086  0.09946287  0.47347911     0.03100
C548        C  0.15393816  0.10573738  0.43887038    -0.04700
C549        C  0.17566470  0.09799386  0.43210306    -0.01800
C550        C  0.18498578  0.08592062  0.46010970     0.03100
C551        C  0.14060482  0.08895963  0.53872141     0.37800
C552        C  0.18882973  0.10297260  0.39627200     0.37800
C553        C  0.20559745  0.07623056  0.45184121     0.36200
C554        C  0.11590792  0.10358438  0.48052359     0.36200
N555        N  0.22185346  0.06825192  0.44512663    -0.38600
N556        N  0.09569558  0.10572582  0.48738893    -0.38600
N557        N  0.19937318  0.10709929  0.36767830    -0.38100
N558        N  0.13180994  0.08823172  0.56776778    -0.38100
C559        C  0.28727997  0.03969322  0.63255112    -0.04700
C560        C  0.30070504  0.02592188  0.61422313    -0.01900
C561        C  0.33180997  0.03846836  0.61508350     0.03100
C562        C  0.34959084  0.06410084  0.63582817    -0.04700
C563        C  0.33508217  0.07349824  0.66006910    -0.01800
C564        C  0.30440397  0.06226412  0.65737633     0.03100
C565        C  0.28245605  0.99894042  0.59438697     0.37800
C566        C  0.35170586  0.09523630  0.68756418     0.37800
C567        C  0.29089427  0.07543458  0.67844826     0.36200
C568        C  0.34549856  0.02605997  0.59290199     0.36200
N569        N  0.28051652  0.08634909  0.69531097    -0.38600
N570        N  0.35636713  0.01596023  0.57537384    -0.38600
N571        N  0.36378779  0.11193206  0.71067524    -0.38100
N572        N  0.26787592  0.97694498  0.57935780    -0.38100
C573        C  0.15094504  0.48983157  0.77928437    -0.04700
C574        C  0.17415339  0.00942972  0.77223425    -0.01900
C575        C  0.17809569  0.02370131  0.73871535     0.03100
C576        C  0.15655688  0.01063017  0.71168684    -0.04700
C577        C  0.13299760  0.49020238  0.71819003    -0.01800
C578        C  0.12820665  0.47750316  0.75317157     0.03100
C579        C  0.19864509  0.02094089  0.79754826     0.37800
C580        C  0.11100154  0.47588185  0.68997971     0.37800
C581        C  0.10062310  0.45100371  0.76150051     0.36200
C582        C  0.20448595  0.05166442  0.73158252     0.36200
N583        N  0.07849079  0.42999583  0.76825305    -0.38600
N584        N  0.22503163  0.07443761  0.72611989    -0.38600
N585        N  0.09350408  0.46447698  0.66743129    -0.38100
N586        N  0.21850129  0.02980502  0.81715247    -0.38100
C587        C  0.08852079  0.42032882  0.49898186    -0.04700
C588        C  0.09001573  0.41138353  0.53507905    -0.01900
C589        C  0.10263385  0.43249370  0.56332380     0.03100
C590        C  0.11163055  0.46229065  0.55688745    -0.04700
C591        C  0.10397294  0.46966540  0.52348584    -0.01800
C592        C  0.09386226  0.44947880  0.49419147     0.03100
C593        C  0.07900987  0.38070674  0.54368951     0.37800
C594        C  0.10693915  0.49826312  0.51865854     0.37800
C595        C  0.08998450  0.45960325  0.45905801     0.36200
C596        C  0.10702893  0.42374798  0.59908388     0.36200
N597        N  0.08736933  0.46811980  0.43109517    -0.38600
N598        N  0.11054835  0.41678457  0.62762704    -0.38600
N599        N  0.10799948  0.52044034  0.51403291    -0.38100
N600        N  0.06984051  0.35621921  0.55089196    -0.38100
C601        C  0.25938135  0.46786395  0.48409289    -0.04700
C602        C  0.22863278  0.45570554  0.48273072    -0.01900
C603        C  0.21645054  0.47233597  0.49505187     0.03100
C604        C  0.23183268  0.99307174  0.50936101    -0.04700
C605        C  0.26271675  0.00710644  0.50661128    -0.01800
C606        C  0.27542128  0.99169553  0.49228511     0.03100
C607        C  0.20973282  0.42658179  0.46769895     0.37800
C608        C  0.28163959  0.03703995  0.51931253     0.37800
C609        C  0.30701238  0.00422342  0.49352261     0.36200
C610        C  0.18493920  0.46054489  0.49345359     0.36200
N611        N  0.33211145  0.01384135  0.49547840    -0.38600
N612        N  0.15984897  0.45127910  0.49168526    -0.38600
N613        N  0.29727114  0.06093553  0.52890279    -0.38100
N614        N  0.19450097  0.40336224  0.45581511    -0.38100
C615        C  0.38974273  0.34690382  0.93858686    -0.04700
C616        C  0.39862058  0.36208152  0.97198643    -0.01900
C617        C  0.41176332  0.35364843  0.99942749     0.03100
C618        C  0.41501870  0.32848184  0.99501412    -0.04700
C619        C  0.40887022  0.31528690  0.95989209    -0.01800
C620        C  0.39696588  0.32488697  0.93192282     0.03100
C621        C  0.39270157  0.38547000  0.97980453     0.37800
C622        C  0.41442955  0.29162499  0.95200121     0.37800
C623        C  0.39251359  0.31239828  0.89575589     0.36200
C624        C  0.42143474  0.37136577  0.03231517     0.36200
N625        N  0.38943770  0.30282944  0.86671892    -0.38600
N626        N  0.42932374  0.38587948  0.05815603    -0.38600
N627        N  0.41876710  0.27269083  0.94549203    -0.38100
N628        N  0.38872260  0.40431915  0.98791550    -0.38100
C629        C  0.24026935  0.21659801  0.01024062    -0.04700
C630        C  0.22119605  0.22601791  0.99699576    -0.01900
C631        C  0.23270931  0.25394659  0.98130246     0.03100
C632        C  0.26333853  0.27241017  0.97836808    -0.04700
C633        C  0.28245869  0.26313091  0.99112551    -0.01800
C634        C  0.27108191  0.23508403  0.00633419     0.03100
C635        C  0.18962215  0.20676829  0.99836360     0.37800
C636        C  0.31404817  0.28271856  0.98891935     0.37800
C637        C  0.29141896  0.22614715  0.01925349     0.36200
C638        C  0.21302732  0.26314708  0.96665487     0.36200
N639        N  0.30779594  0.21921878  0.02945742    -0.38600
N640        N  0.19727214  0.27036917  0.95499430    -0.38600
N641        N  0.33925948  0.29815054  0.98769666    -0.38100
N642        N  0.16435628  0.19188788  0.99899777    -0.38100
C643        C  0.21487944  0.27089240  0.85298965    -0.04700
C644        C  0.20643115  0.24271318  0.86713066    -0.01900
C645        C  0.17632610  0.22121519  0.87047458     0.03100
C646        C  0.15466186  0.22716672  0.85783225    -0.04700
C647        C  0.16332825  0.25334835  0.83827366    -0.01800
C648        C  0.19333346  0.27563813  0.83693970     0.03100
C649        C  0.22840323  0.23677199  0.88189151     0.37800
C650        C  0.14096105  0.25822218  0.82245425     0.37800
C651        C  0.20184234  0.30424792  0.82180837     0.36200
C652        C  0.16749863  0.19419457  0.89029713     0.36200
N653        N  0.20862563  0.32723051  0.81020564    -0.38600
N654        N  0.16042286  0.17273853  0.90634334    -0.38600
N655        N  0.12295081  0.26192792  0.80997773    -0.38100
N656        N  0.24561687  0.23159438  0.89370287    -0.38100
C657        C  0.27983670  0.42304478  0.87027978    -0.04700
C658        C  0.27897077  0.43832475  0.90125814    -0.01900
C659        C  0.25635645  0.44490384  0.90553239     0.03100
C660        C  0.23792480  0.44192372  0.87601407    -0.04700
C661        C  0.24331019  0.43292829  0.84207221    -0.01800
C662        C  0.26232495  0.42115301  0.84007441     0.03100
C663        C  0.30135644  0.44762295  0.92894510     0.37800
C664        C  0.22887490  0.43500569  0.80968764     0.37800
C665        C  0.26333177  0.40657098  0.80732477     0.36200
C666        C  0.25104858  0.45288289  0.94126195     0.36200
N667        N  0.26382749  0.39492381  0.78094210    -0.38600
N668        N  0.24649179  0.45807416  0.97025958    -0.38600
N669        N  0.21766079  0.43698510  0.78366112    -0.38100
N670        N  0.31946213  0.45696212  0.95096982    -0.38100
C671        C  0.33430256  0.41919871  0.99669667    -0.04700
C672        C  0.31601493  0.41236115  0.02773708    -0.01900
C673        C  0.32392161  0.43285268  0.05657045     0.03100
C674        C  0.35066542  0.46045184  0.05550533    -0.04700
C675        C  0.36998827  0.46613244  0.02594251    -0.01800
C676        C  0.36158854  0.44631945  0.99641678     0.03100
C677        C  0.28845793  0.38452760  0.02994818     0.37800
C678        C  0.39685778  0.99639221  0.01389507     0.37800
C679        C  0.38008164  0.45577877  0.96413521     0.36200
C680        C  0.30374653  0.42551661  0.08691878     0.36200
N681        N  0.39473130  0.46349341  0.93838648    -0.38600
N682        N  0.28724437  0.41948213  0.11066357    -0.38600
N683        N  0.41970745  0.01760205  0.01270018    -0.38100
N684        N  0.26636677  0.36247859  0.03174147    -0.38100
C685        C  0.36425951  0.37924870  0.55730396    -0.04700
C686        C  0.37869604  0.38789618  0.52318136    -0.01900
C687        C  0.36731119  0.39717586  0.49466795     0.03100
C688        C  0.34169107  0.39923386  0.49981157    -0.04700
C689        C  0.32914656  0.39372043  0.53512795    -0.01800
C690        C  0.34094122  0.38474033  0.56377086     0.03100
C691        C  0.40560953  0.38767871  0.51657508     0.37800
C692        C  0.30337261  0.39609786  0.54208816     0.37800
C693        C  0.32987602  0.38265517  0.60039073     0.36200
C694        C  0.38167844  0.40314822  0.45934620     0.36200
N695        N  0.32137628  0.38181795  0.62960534    -0.38600
N696        N  0.39327355  0.40793263  0.43137608    -0.38600
N697        N  0.28248950  0.39743108  0.54779361    -0.38100
N698        N  0.42744642  0.38847896  0.51015378    -0.38100
C699        C  0.28778053  0.25743024  0.51629528    -0.04700
C700        C  0.27300247  0.27294850  0.50849291    -0.01900
C701        C  0.24445088  0.25821687  0.49413683     0.03100
C702        C  0.23119794  0.22827466  0.48501156    -0.04700
C703        C  0.24618364  0.21293355  0.49098599    -0.01800
C704        C  0.27469212  0.22755152  0.50556878     0.03100
C705        C  0.28795391  0.30462265  0.51198218     0.37800
C706        C  0.23228866  0.18198453  0.48159821     0.37800
C707        C  0.29072066  0.21194942  0.50698158     0.36200
C708        C  0.22947064  0.27441282  0.48665039     0.36200
N709        N  0.30333511  0.19930020  0.50667912    -0.38600
N710        N  0.21756058  0.28734067  0.48081846    -0.38600
N711        N  0.22142258  0.15733070  0.47432739    -0.38100
N712        N  0.29968228  0.32992103  0.51393030    -0.38100
C713        C  0.29556735  0.19987020  0.61976820    -0.04700
C714        C  0.29983204  0.18084888  0.59656214    -0.01900
C715        C  0.27704700  0.15181161  0.59066448     0.03100
C716        C  0.25105002  0.13901157  0.61222716    -0.04700
C717        C  0.24729400  0.15719884  0.63722096    -0.01800
C718        C  0.26898307  0.18768398  0.64012908     0.03100
C719        C  0.32764987  0.19063398  0.57791357     0.37800
C720        C  0.22165793  0.14446435  0.66059475     0.37800
C721        C  0.26453121  0.20604835  0.66550359     0.36200
C722        C  0.28048179  0.13546800  0.56099178     0.36200
N723        N  0.26098469  0.22067011  0.68588781    -0.38600
N724        N  0.28343127  0.12261514  0.53747211    -0.38600
N725        N  0.20123462  0.13419688  0.67939521    -0.38100
N726        N  0.34973800  0.19806228  0.56319333    -0.38100
C727        C  0.35287323  0.35988555  0.78005316    -0.04700
C728        C  0.37918150  0.35948562  0.77437424    -0.01900
C729        C  0.38470928  0.35050948  0.74049639     0.03100
C730        C  0.36332414  0.34070395  0.71265631    -0.04700
C731        C  0.33754573  0.34228112  0.71803022    -0.01800
C732        C  0.33273275  0.35242911  0.75127082     0.03100
C733        C  0.39956266  0.36639808  0.80433122     0.37800
C734        C  0.31519196  0.33226898  0.68989935     0.37800
C735        C  0.30602672  0.35344818  0.75659209     0.36200
C736        C  0.41132192  0.34926931  0.73538283     0.36200
N737        N  0.28462070  0.35412901  0.76040498    -0.38600
N738        N  0.43256569  0.34827485  0.73142490    -0.38600
N739        N  0.29714741  0.32370275  0.66771309    -0.38100
N740        N  0.41561788  0.37175539  0.82842802    -0.38100
C741        C  0.42651807  0.26689412  0.64671855    -0.04700
C742        C  0.45416795  0.27069907  0.63758432    -0.01900
C743        C  0.45822078  0.24613152  0.63664191     0.03100
C744        C  0.43401505  0.21738335  0.64324033    -0.04700
C745        C  0.40781577  0.21447728  0.65741306    -0.01800
C746        C  0.40473127  0.23947745  0.66078996     0.03100
C747        C  0.47726526  0.29927499  0.62512289     0.37800
C748        C  0.38338873  0.18565607  0.66648086     0.37800
C749        C  0.37824650  0.23671738  0.67649151     0.36200
C750        C  0.48606437  0.25015074  0.62388987     0.36200
N751        N  0.35728260  0.23450487  0.68964940    -0.38600
N752        N  0.50828773  0.25349813  0.61354654    -0.38600
N753        N  0.36357060  0.16275333  0.67349669    -0.38100
N754        N  0.49562037  0.32210344  0.61513666    -0.38100
C755        C  0.43851255  0.33038823  0.49981459    -0.04700
C756        C  0.43123137  0.31305351  0.46754270    -0.01900
C757        C  0.45066415  0.32233673  0.43728860     0.03100
C758        C  0.47734690  0.34990666  0.43742005    -0.04700
C759        C  0.48288061  0.36845333  0.46808651    -0.01800
C760        C  0.46498553  0.35813316  0.49960516     0.03100
C761        C  0.40411626  0.28483299  0.46516368     0.37800
C762        C  0.99856688  0.39949769  0.45277297     0.37800
C763        C  0.47455219  0.37664984  0.53182503     0.36200
C764        C  0.44272403  0.30281073  0.40617864     0.36200
N765        N  0.48238360  0.39160575  0.55727047    -0.38600
N766        N  0.43622365  0.28701028  0.38162635    -0.38600
N767        N  0.01437932  0.42448253  0.44871093    -0.38100
N768        N  0.38246645  0.26239840  0.46288780    -0.38100
Fe769      Fe  0.33404216  0.80573065  0.60236617     1.65800
Fe770      Fe  0.40746981  0.83860804  0.60432360     1.73200
Fe771      Fe  0.36751826  0.77315188  0.56455382     1.54400
O772        O  0.33987200  0.74426681  0.60311311    -0.81100
O773        O  0.43000356  0.83486369  0.55916983    -0.79400
O774        O  0.30778284  0.75949132  0.60757240    -0.83600
O775        O  0.32494908  0.80343769  0.54869663    -0.78400
O776        O  0.40243287  0.77519287  0.59276425    -0.80200
O777        O  0.39711596  0.86494443  0.57135045    -0.83000
C778        C  0.31809439  0.78091866  0.53006337     0.97800
C779        C  0.31384762  0.73895730  0.60811138     1.05200
O780        O  0.36974924  0.80537610  0.59133232    -1.11900
O781        O  0.38989277  0.84698944  0.65170060    -0.74400
O782        O  0.34365587  0.80973781  0.65639133    -0.77900
O783        O  0.33131051  0.76658427  0.53430586    -0.78600
C784        C  0.36579500  0.83238694  0.66952884     0.96700
O785        O  0.35430975  0.85104120  0.59675503    -0.76500
O786        O  0.41729835  0.81064740  0.63475041    -0.81700
C787        C  0.42131440  0.82152314  0.52877046     0.99300
C788        C  0.41488459  0.78665148  0.62286031     1.05200
O789        O  0.39509686  0.80048949  0.52459339    -0.77300
C790        C  0.37326012  0.86567472  0.57243611     1.03500
Fe791      Fe  0.30338652  0.81368086  0.87605222     1.65800
Fe792      Fe  0.34326694  0.88778851  0.88443692     1.73200
Fe793      Fe  0.27234884  0.85013458  0.91088709     1.54400
O794        O  0.24181963  0.81261210  0.88197983    -0.81100
O795        O  0.34350869  0.89852716  0.93811846    -0.79400
O796        O  0.26662154  0.80045560  0.84389811    -0.83600
O797        O  0.27724063  0.79232614  0.91952084    -0.78400
O798        O  0.27274387  0.87561401  0.86913941    -0.80200
O799        O  0.36980479  0.87017350  0.90171074    -0.83000
C800        C  0.26995601  0.79993124  0.94850916     0.97800
C801        C  0.24251268  0.79669209  0.85638618     1.05200
O802        O  0.30638841  0.85059243  0.88990454    -1.11900
O803        O  0.34656484  0.87931516  0.82992839    -0.74400
O804        O  0.32982767  0.83098927  0.83095746    -0.77900
O805        O  0.27092609  0.82419055  0.95277276    -0.78600
C806        C  0.34263300  0.85576470  0.81513827     0.96700
O807        O  0.33810459  0.82250991  0.90865166    -0.76500
O808        O  0.32027465  0.91031316  0.87012476    -0.81700
C809        C  0.32400041  0.90095977  0.95505316     0.99300
C810        C  0.29304556  0.90195454  0.86441307     1.05200
O811        O  0.29722312  0.88715852  0.94453536    -0.77300
C812        C  0.36304444  0.84492460  0.91457119     1.03500
Fe813      Fe  0.19760798  0.50762428  0.60915657     1.65800
Fe814      Fe  0.16893076  0.55255847  0.60057508     1.73200
Fe815      Fe  0.23318312  0.56948220  0.56062835     1.54400
O816        O  0.26258454  0.56037493  0.58877871    -0.81100
O817        O  0.16387718  0.55979691  0.54707972    -0.79400
O818        O  0.23848965  0.53019379  0.63473470    -0.83600
O819        O  0.21725201  0.50274397  0.56410961    -0.78400
O820        O  0.24358568  0.60211857  0.59681691    -0.80200
O821        O  0.13525237  0.50852072  0.59017413    -0.83000
C822        C  0.22354566  0.51385224  0.53258882     0.97800
C823        C  0.26237322  0.54721041  0.61802894     1.05200
O824        O  0.19984123  0.54335485  0.59061800    -1.11900
O825        O  0.16931230  0.54506595  0.65604081    -0.74400
O826        O  0.17685877  0.50711647  0.65640268    -0.77900
O827        O  0.22400619  0.53721264  0.52386123    -0.78600
C828        C  0.16901161  0.52346444  0.67181175     0.96700
O829        O  0.15399866  0.97706708  0.58462203    -0.76500
O830        O  0.20024662  0.59864658  0.60728270    -0.81700
C831        C  0.18266676  0.57579203  0.52360271     0.99300
C832        C  0.22844580  0.61383300  0.60422358     1.05200
O833        O  0.20956247  0.58309952  0.52720183    -0.77300
C834        C  0.13285067  0.98170000  0.58022341     1.03500
Fe835      Fe  0.18668843  0.98238444  0.87014577     1.65800
Fe836      Fe  0.11558238  0.93793028  0.88624681     1.73200
Fe837      Fe  0.16430062  0.93090811  0.93570396     1.54400
O838        O  0.19680749  0.92924851  0.90599396    -0.81100
O839        O  0.09765680  0.91382857  0.93293967    -0.79400
O840        O  0.21087476  0.96190759  0.86065858    -0.83600
O841        O  0.21182299  0.00275427  0.91344467    -0.78400
O842        O  0.13306907  0.89081048  0.91214351    -0.80200
O843        O  0.12437304  0.97629408  0.91256518    -0.83000
C844        C  0.21419491  0.99481700  0.94487047     0.97800
C845        C  0.21322903  0.94269434  0.87888064     1.05200
O846        O  0.15627211  0.95023010  0.89731865    -1.11900
O847        O  0.12351551  0.96007162  0.83635970    -0.74400
O848        O  0.16528462  0.96369854  0.82316240    -0.77900
O849        O  0.19669346  0.96967702  0.95856242    -0.78600
C850        C  0.14446803  0.96731498  0.81435536     0.96700
O851        O  0.16513729  0.51188485  0.88098924    -0.76500
O852        O  0.11124045  0.89947381  0.86442476    -0.81700
C853        C  0.10650878  0.91973845  0.96526086     0.99300
C854        C  0.11803647  0.88275849  0.88246403     1.05200
O855        O  0.13386546  0.93211449  0.97144381    -0.77300
C856        C  0.14788808  0.50824595  0.90736294     1.03500
Fe857      Fe  0.48473957  0.68118918  0.60881388     1.65800
Fe858      Fe  0.44892879  0.60661101  0.61025626     1.73200
Fe859      Fe  0.41599228  0.64215379  0.57626447     1.54400
O860        O  0.42294811  0.67999840  0.60485528    -0.81100
O861        O  0.43654145  0.59017699  0.55887455    -0.79400
O862        O  0.46169625  0.69458122  0.64132751    -0.83600
O863        O  0.47784715  0.70174803  0.56563446    -0.78400
O864        O  0.38906828  0.61725188  0.61719449    -0.80200
O865        O  0.49311359  0.62382271  0.59147327    -0.83000
C866        C  0.46162221  0.69332417  0.53767451     0.97800
C867        C  0.44008402  0.69677580  0.62998732     1.05200
O868        O  0.44973910  0.64312385  0.59878387    -1.11900
O869        O  0.46222506  0.62021361  0.66321190    -0.74400
O870        O  0.49710578  0.66687453  0.65397266    -0.77900
O871        O  0.44045554  0.66739133  0.53366784    -0.78600
C872        C  0.48431960  0.64417059  0.67381621     0.96700
O873        O  0.00856580  0.67031007  0.56734525    -0.76500
O874        O  0.40338907  0.58462993  0.62689418    -0.81700
C875        C  0.41660002  0.58870914  0.53843436     0.99300
C876        C  0.38391602  0.59247852  0.62856341     1.05200
O877        O  0.40497133  0.60453037  0.54430254    -0.77300
C878        C  0.01143373  0.64792147  0.56548987     1.03500
Fe879      Fe  0.02725845  0.69649885  0.88011772     1.65800
Fe880      Fe  0.06189001  0.65642092  0.88027800     1.73200
Fe881      Fe  0.08961453  0.72025286  0.92928836     1.54400
O882        O  0.08978822  0.75458876  0.90228893    -0.81100
O883        O  0.07766340  0.65069925  0.92966664    -0.79400
O884        O  0.05461257  0.73857099  0.86043083    -0.83600
O885        O  0.02424415  0.71361764  0.92812107    -0.78400
O886        O  0.12234285  0.72426978  0.89515088    -0.80200
O887        O  0.01967317  0.62861059  0.90116831    -0.83000
C888        C  0.03687634  0.72036755  0.95858415     0.97800
C889        C  0.07674639  0.75932812  0.87642572     1.05200
O890        O  0.05973415  0.69104642  0.89628123    -1.11900
O891        O  0.04515577  0.65365448  0.82764510    -0.74400
O892        O  0.02462648  0.68106500  0.82903471    -0.77900
O893        O  0.05976957  0.71935649  0.96580578    -0.78600
C894        C  0.03050610  0.66382365  0.81253490     0.96700
O895        O  0.49880886  0.65378897  0.89817456    -0.76500
O896        O  0.10500505  0.68383187  0.86020634    -0.81700
C897        C  0.08837157  0.66483895  0.95894909     0.99300
C898        C  0.12536733  0.70962208  0.86978507     1.05200
O899        O  0.09338195  0.69079395  0.96264018    -0.77300
C900        C  0.50110515  0.63363601  0.91456675     1.03500
Fe901      Fe  0.19021285  0.69489854  0.37582233     1.65800
Fe902      Fe  0.16028860  0.72864721  0.42104748     1.73200
Fe903      Fe  0.11601170  0.66151991  0.38444352     1.54400
O904        O  0.12407755  0.65989026  0.32935080    -0.81100
O905        O  0.12375320  0.70442986  0.45550806    -0.79400
O906        O  0.17083868  0.67105541  0.32983262    -0.83600
O907        O  0.17842242  0.65761324  0.40475140    -0.78400
O908        O  0.09831334  0.68951034  0.37307679    -0.80200
O909        O  0.18596708  0.72312902  0.45855782    -0.83000
C910        C  0.15406483  0.63431856  0.41043055     0.97800
C911        C  0.14626892  0.66099467  0.31418908     1.05200
O912        O  0.15520083  0.69512765  0.39296153    -1.11900
O913        O  0.19805606  0.75839889  0.39117500    -0.74400
O914        O  0.20555809  0.73369265  0.34735522    -0.77900
O915        O  0.12955830  0.63103223  0.39896622    -0.78600
C916        C  0.21177354  0.75767676  0.36286414     0.96700
O917        O  0.21495519  0.71820164  0.41914511    -0.76500
O918        O  0.13444711  0.73553398  0.38535665    -0.81700
C919        C  0.10513131  0.67718622  0.46008656     0.99300
C920        C  0.10849028  0.71745078  0.37460774     1.05200
O921        O  0.10364232  0.65829917  0.43784139    -0.77300
C922        C  0.20991217  0.72437917  0.45048957     1.03500
Fe923      Fe  0.20163378  0.67674187  0.10763538     1.65800
Fe924      Fe  0.23994495  0.65049750  0.06394395     1.73200
Fe925      Fe  0.17670970  0.60392542  0.10545566     1.54400
O926        O  0.16242122  0.61556974  0.15275624    -0.81100
O927        O  0.21349282  0.62066384  0.02410030    -0.79400
O928        O  0.19456117  0.66279214  0.15998005    -0.83600
O929        O  0.15692860  0.65365181  0.09421039    -0.78400
O930        O  0.20850830  0.59875509  0.13474207    -0.80200
O931        O  0.24149798  0.68362688  0.03361079    -0.83000
C932        C  0.14229035  0.63145852  0.07352554     0.97800
C933        C  0.17285706  0.63918362  0.17114596     1.05200
O934        O  0.20651066  0.64407947  0.09266628    -1.11900
O935        O  0.26911019  0.68192990  0.10096085    -0.74400
O936        O  0.24572549  0.70435972  0.12130521    -0.77900
O937        O  0.14671602  0.60969805  0.07381909    -0.78600
C938        C  0.26895573  0.70291985  0.11797943     0.96700
O939        O  0.20910218  0.69422177  0.05711994    -0.76500
O940        O  0.24279446  0.61800469  0.09126217    -0.81700
C941        C  0.19449475  0.59369092  0.02890620     0.99300
C942        C  0.23330255  0.60428878  0.12116668     1.05200
O943        O  0.18422883  0.58461062  0.06049723    -0.77300
C944        C  0.22854177  0.69824657  0.03411052     1.03500
Fe945      Fe  0.29977375  0.97073179  0.37511829     1.65800
Fe946      Fe  0.27485285  0.90586612  0.41814097     1.73200
Fe947      Fe  0.34312450  0.94030075  0.37971502     1.54400
O948        O  0.34485909  0.95347610  0.32618565    -0.81100
O949        O  0.30282474  0.89859412  0.45164237    -0.79400
O950        O  0.32260209  0.97961343  0.32712939    -0.83600
O951        O  0.34017954  0.49934144  0.41495028    -0.78400
O952        O  0.32003553  0.89580013  0.36121763    -0.80200
O953        O  0.27439791  0.93260787  0.45744512    -0.83000
C954        C  0.36407454  0.50056861  0.42343468     0.97800
C955        C  0.33785911  0.97068949  0.31122216     1.05200
O956        O  0.30604025  0.93880658  0.39059451    -1.11900
O957        O  0.24115879  0.90824478  0.39076126    -0.74400
O958        O  0.26140744  0.94290831  0.34819601    -0.77900
O959        O  0.36795311  0.98426036  0.39950157    -0.78600
C960        C  0.23898887  0.92289438  0.36457009     0.96700
O961        O  0.27627286  0.96708473  0.42063194    -0.76500
O962        O  0.27337948  0.87739440  0.38019954    -0.81700
C963        C  0.33053900  0.91013733  0.45466254     0.99300
C964        C  0.29282493  0.87527885  0.36247339     1.05200
O965        O  0.34790089  0.92796005  0.43114888    -0.77300
C966        C  0.27039942  0.95376758  0.45073404     1.03500
Fe967      Fe  0.32421402  0.51403770  0.11784769     1.65800
Fe968      Fe  0.35992392  0.57637405  0.06937582     1.73200
Fe969      Fe  0.39936773  0.54949035  0.10871491     1.54400
O970        O  0.38976477  0.53611168  0.16299177    -0.81100
O971        O  0.39329273  0.58403712  0.03294526    -0.79400
O972        O  0.34134701  0.50652655  0.16370240    -0.83600
O973        O  0.33011049  0.99399186  0.06841908    -0.78400
O974        O  0.41901403  0.59449462  0.12565633    -0.80200
O975        O  0.33063654  0.54537621  0.03477999    -0.83000
C976        C  0.35207592  0.99048615  0.06558905     0.97800
C977        C  0.36624291  0.51690181  0.17846770     1.05200
O978        O  0.36166329  0.54705941  0.09951354    -1.11900
O979        O  0.32589954  0.57346722  0.10087154    -0.74400
O980        O  0.31349535  0.54145011  0.14632975    -0.77900
O981        O  0.38118967  0.50544835  0.08995403    -0.78600
C982        C  0.31218367  0.56225654  0.13052208     0.96700
O983        O  0.29965512  0.51478400  0.07545972    -0.76500
O984        O  0.38936979  0.60931378  0.10196028    -0.81700
C985        C  0.41306248  0.57718737  0.03094053     0.99300
C986        C  0.41159811  0.61407302  0.12058325     1.05200
O987        O  0.41610237  0.56276420  0.05642436    -0.77300
C988        C  0.30485606  0.52651241  0.04443334     1.03500
Fe989      Fe  0.49184782  0.80187053  0.10967888     1.65800
Fe990      Fe  0.42499133  0.76642253  0.06972933     1.73200
Fe991      Fe  0.45032478  0.83398507  0.10668020     1.54400
O992        O  0.47526718  0.84458998  0.15511878    -0.81100
O993        O  0.42262322  0.79294393  0.02928735    -0.79400
O994        O  0.48654538  0.80967495  0.16237141    -0.83600
O995        O  0.01675902  0.84534844  0.09461862    -0.78400
O996        O  0.41056399  0.80730340  0.13456743    -0.80200
O997        O  0.45464110  0.76199206  0.03820894    -0.83000
C998        C  0.01244771  0.86151204  0.07293584     0.97800
C999        C  0.48656923  0.83228970  0.17359957     1.05200
O1000       O  0.45521548  0.80021745  0.09602172    -1.11900
O1001       O  0.42493952  0.73564708  0.10642177    -0.74400
O1002       O  0.47221985  0.75708528  0.12165903    -0.77900
O1003       O  0.48800790  0.86066070  0.07577344    -0.78600
C1004       C  0.44673719  0.73431746  0.11945878     0.96700
O1005       O  0.49946045  0.79395216  0.05843980    -0.76500
O1006       O  0.39192822  0.76718074  0.09898373    -0.81700
C1007       C  0.41951783  0.81530162  0.03138845     0.99300
C1008       C  0.38908852  0.78267545  0.12338996     1.05200
O1009       O  0.42571751  0.83015218  0.06051551    -0.77300
C1010       C  0.48237929  0.77368727  0.03715268     1.03500
Fe1011     Fe  0.02101518  0.82058152  0.37104298     1.65800
Fe1012     Fe  0.07813287  0.84810636  0.42887291     1.73200
Fe1013     Fe  0.06322325  0.89345261  0.38336652     1.54400
O1014       O  0.04171194  0.88322585  0.33305112    -0.81100
O1015       O  0.07268692  0.87406641  0.46668897    -0.79400
O1016       O  0.03536379  0.83939530  0.32131689    -0.83600
O1017       O  0.50094439  0.83866289  0.38059828    -0.78400
O1018       O  0.10252313  0.90182230  0.35958701    -0.80200
O1019       O  0.04277269  0.81128004  0.45254864    -0.83000
C1020       C  0.50421192  0.85603219  0.40691022     0.97800
C1021       C  0.03565548  0.86236023  0.31118074     1.05200
O1022       O  0.05439050  0.85350520  0.39394849    -1.11900
O1023       O  0.08456279  0.82086147  0.39495732    -0.74400
O1024       O  0.04282059  0.79663037  0.36299321    -0.77900
O1025       O  0.02471650  0.88270557  0.41013623    -0.78600
C1026       C  0.06687194  0.79938499  0.37509590     0.96700
O1027       O  0.00354457  0.79825605  0.41749055    -0.76500
O1028       O  0.11591926  0.88354054  0.40632650    -0.81700
C1029       C  0.08127933  0.90110355  0.46310341     0.99300
C1030       C  0.12133144  0.89736727  0.37605772     1.05200
O1031       O  0.08571569  0.91207252  0.43150890    -0.77300
C1032       C  0.01578166  0.79446665  0.44455618     1.03500
C1033       C  0.50252134  0.84546061  0.20816248    -0.04700
C1034       C  0.02764395  0.84740192  0.21116434    -0.01900
C1035       C  0.04106254  0.85647061  0.24534614     0.03100
C1036       C  0.02724158  0.86337282  0.27312144    -0.04700
C1037       C  0.50341102  0.86055816  0.27127576    -0.01800
C1038       C  0.48928016  0.85222049  0.23702882     0.03100
C1039       C  0.04128508  0.83810114  0.18402490     0.37800
C1040       C  0.48858373  0.86482489  0.30184372     0.37800
C1041       C  0.46012938  0.84813399  0.23253539     0.36200
C1042       C  0.06895130  0.85810224  0.25230786     0.36200
N1043       N  0.43680979  0.84478612  0.22906554    -0.38600
N1044       N  0.09129727  0.85960614  0.25760008    -0.38600
N1045       N  0.47671356  0.86822573  0.32617715    -0.38100
N1046       N  0.05195556  0.83019212  0.16279027    -0.38100
C1047       C  0.42892626  0.64484796  0.13487569    -0.04700
C1048       C  0.41389339  0.65525761  0.15623651    -0.01900
C1049       C  0.41954526  0.68440998  0.15183245     0.03100
C1050       C  0.44310875  0.70480623  0.12982423    -0.04700
C1051       C  0.46249486  0.69585923  0.11561593    -0.01800
C1052       C  0.45457454  0.66575537  0.11649919     0.03100
C1053       C  0.39104362  0.63502104  0.18085461     0.37800
C1054       C  0.49018180  0.71720707  0.09915332     0.37800
C1055       C  0.47177274  0.65592645  0.09667954     0.36200
C1056       C  0.40020547  0.69266742  0.16901678     0.36200
N1057       N  0.48547720  0.64798948  0.08095783    -0.38600
N1058       N  0.38380354  0.69806544  0.18271415    -0.38600
N1059       N  0.51269160  0.73424038  0.08683781    -0.38100
N1060       N  0.37291303  0.61888910  0.20059464    -0.38100
C1061       C  0.15096125  0.90770256  0.36053271    -0.04700
C1062       C  0.15700206  0.88661015  0.34596807    -0.01900
C1063       C  0.18591974  0.89161663  0.34588808     0.03100
C1064       C  0.20954046  0.91907519  0.35685182    -0.04700
C1065       C  0.20383775  0.94182403  0.36632447    -0.01800
C1066       C  0.17453796  0.93583096  0.36915129     0.03100
C1067       C  0.13325843  0.85938925  0.33162312     0.37800
C1068       C  0.22777046  0.97073463  0.37627872     0.37800
C1069       C  0.16850051  0.95794754  0.38308267     0.36200
C1070       C  0.19081731  0.86774901  0.33675379     0.36200
N1071       N  0.16362546  0.97555175  0.39421471    -0.38600
N1072       N  0.19377472  0.84800372  0.32999459    -0.38600
N1073       N  0.24655384  0.99399130  0.38421029    -0.38100
N1074       N  0.11470232  0.83787402  0.31907347    -0.38100
C1075       C  0.36679565  0.50541136  0.21532155    -0.04700
C1076       C  0.34627383  0.97388261  0.20832116    -0.01900
C1077       C  0.34005271  0.96252514  0.24406153     0.03100
C1078       C  0.34832315  0.98186144  0.27396524    -0.04700
C1079       C  0.37242278  0.51268502  0.28110340    -0.01800
C1080       C  0.37791583  0.52441393  0.24548920     0.03100
C1081       C  0.33897510  0.95407366  0.17767367     0.37800
C1082       C  0.38505378  0.53228834  0.31186860     0.37800
C1083       C  0.39356521  0.55601012  0.24003471     0.36200
C1084       C  0.32415781  0.93100168  0.24986412     0.36200
N1085       N  0.40601799  0.58120552  0.23561617    -0.38600
N1086       N  0.31159998  0.90580478  0.25421741    -0.38600
N1087       N  0.39580317  0.54809591  0.33617516    -0.38100
N1088       N  0.33361648  0.93829354  0.15329983    -0.38100
C1089       C  0.35840478  0.77080512  0.13662879    -0.04700
C1090       C  0.33934134  0.77706267  0.11677747    -0.01900
C1091       C  0.30878047  0.75642311  0.11579047     0.03100
C1092       C  0.29771046  0.72813507  0.13121169    -0.04700
C1093       C  0.31586268  0.72411577  0.15607122    -0.01800
C1094       C  0.34592945  0.74613476  0.15972576     0.03100
C1095       C  0.35143637  0.80404499  0.09591549     0.37800
C1096       C  0.30352245  0.69799590  0.17854045     0.37800
C1097       C  0.36407546  0.74470747  0.18817290     0.36200
C1098       C  0.28891597  0.76419278  0.09865698     0.36200
N1099       N  0.37875247  0.74491551  0.21168896    -0.38600
N1100       N  0.27293247  0.77064773  0.08586303    -0.38600
N1101       N  0.29381646  0.67719693  0.19666264    -0.38100
N1102       N  0.36113854  0.82565838  0.07937982    -0.38100
C1103       C  0.25353350  0.59540435  0.13846669    -0.04700
C1104       C  0.28437170  0.61481968  0.13458249    -0.01900
C1105       C  0.30409471  0.60448731  0.13739685     0.03100
C1106       C  0.29386754  0.57457576  0.14446823    -0.04700
C1107       C  0.26417504  0.55649278  0.15552020    -0.01800
C1108       C  0.24376373  0.56654451  0.15137414     0.03100
C1109       C  0.29680531  0.64494650  0.12224216     0.37800
C1110       C  0.25444250  0.52741676  0.16983643     0.37800
C1111       C  0.21264727  0.54635220  0.15697695     0.36200
C1112       C  0.33459533  0.62436236  0.12719924     0.36200
N1113       N  0.18778515  0.53007906  0.16129839    -0.38600
N1114       N  0.35794175  0.64067572  0.11655475    -0.38600
N1115       N  0.24674362  0.50432491  0.18179887    -0.38100
N1116       N  0.30993831  0.66867198  0.11103101    -0.38100
C1117       C  0.23749145  0.78584110  0.35008080    -0.04700
C1118       C  0.26556032  0.79580538  0.36554991    -0.01900
C1119       C  0.28759694  0.82583439  0.36337124     0.03100
C1120       C  0.28170505  0.84593010  0.34556232    -0.04700
C1121       C  0.25610956  0.83468598  0.32380112    -0.01800
C1122       C  0.23369336  0.80479872  0.32669832     0.03100
C1123       C  0.27156016  0.77558731  0.38508042     0.37800
C1124       C  0.25192188  0.85464105  0.30095569     0.37800
C1125       C  0.20625039  0.79389984  0.30718074     0.36200
C1126       C  0.31513868  0.83641322  0.38254484     0.36200
N1127       N  0.18434823  0.78516514  0.29152077    -0.38600
N1128       N  0.33703249  0.84429689  0.39786786    -0.38600
N1129       N  0.24854375  0.87052292  0.28262311    -0.38100
N1130       N  0.27729025  0.75992549  0.40021967    -0.38100
C1131       C  0.15923421  0.64057367  0.20598311    -0.04700
C1132       C  0.15248404  0.61972545  0.23390933    -0.01900
C1133       C  0.14567990  0.62521820  0.26916174     0.03100
C1134       C  0.14477682  0.65108503  0.27629556    -0.04700
C1135       C  0.14894077  0.67052618  0.24770378    -0.01800
C1136       C  0.15574319  0.66514874  0.21259579     0.03100
C1137       C  0.15423352  0.59359863  0.22708102     0.37800
C1138       C  0.14908957  0.69759660  0.25513417     0.37800
C1139       C  0.16001832  0.68559601  0.18349367     0.36200
C1140       C  0.14144983  0.60523290  0.29873971     0.36200
N1141       N  0.16360032  0.70202252  0.16042462    -0.38600
N1142       N  0.13823144  0.58942453  0.32243361    -0.38600
N1143       N  0.14972010  0.71943910  0.26100451    -0.40500
N1144       N  0.15545036  0.57264850  0.22156098    -0.38100
C1145       C  0.08900796  0.73033410  0.37019209    -0.04700
C1146       C  0.07959562  0.73737033  0.40242771    -0.01900
C1147       C  0.07492720  0.76125939  0.40383703     0.03100
C1148       C  0.07317334  0.77477273  0.37148307    -0.04700
C1149       C  0.07678227  0.76380659  0.33787929    -0.01800
C1150       C  0.08668606  0.74309970  0.33739813     0.03100
C1151       C  0.07248519  0.71893892  0.43417986     0.37800
C1152       C  0.07102953  0.77412696  0.30415678     0.37800
C1153       C  0.09359107  0.73436682  0.30332612     0.36200
C1154       C  0.07202234  0.77159253  0.43936930     0.36200
N1155       N  0.09860195  0.72727476  0.27577142    -0.38600
N1156       N  0.07043458  0.77929642  0.46829300    -0.38600
N1157       N  0.06617373  0.78215790  0.27717179    -0.38100
N1158       N  0.06444374  0.70471144  0.46014305    -0.38100
C1159       C  0.09630965  0.65099503  0.98964187    -0.04700
C1160       C  0.09473152  0.65795334  0.02657287    -0.01900
C1161       C  0.10701085  0.64895266  0.05467468     0.03100
C1162       C  0.12124253  0.63289481  0.04655034    -0.04700
C1163       C  0.11922999  0.62282998  0.01033138    -0.01800
C1164       C  0.10709812  0.63182510  0.98222595     0.03100
C1165       C  0.08021590  0.67420133  0.03594971     0.37800
C1166       C  0.13068604  0.60410040  0.00067728     0.37800
C1167       C  0.10768147  0.62265040  0.94515677     0.36200
C1168       C  0.10442600  0.65582570  0.09217462     0.36200
N1169       N  0.10814493  0.61518287  0.91570344    -0.38600
N1170       N  0.10199697  0.66110830  0.12206563    -0.38600
N1171       N  0.13889688  0.58872395  0.99100413    -0.38100
N1172       N  0.06857789  0.68708850  0.04350453    -0.38100
C1173       C  0.47625796  0.61262979  0.93968370    -0.04700
C1174       C  0.44762136  0.60855166  0.93628171    -0.01900
C1175       C  0.42688590  0.59638344  0.96517633     0.03100
C1176       C  0.43385058  0.58714322  0.99823353    -0.04700
C1177       C  0.46159763  0.58863893  0.00003355    -0.01800
C1178       C  0.48195431  0.60023206  0.97071342     0.03100
C1179       C  0.43899622  0.61638129  0.90258480     0.37800
C1180       C  0.47065751  0.58020637  0.03294899     0.37800
C1181       C  0.50894203  0.59929049  0.97319612     0.36200
C1182       C  0.39884559  0.59495305  0.96080368     0.36200
N1183       N  0.02962886  0.60112383  0.97268691    -0.38600
N1184       N  0.37690075  0.59460573  0.95705892    -0.38600
N1185       N  0.47815832  0.57362218  0.05910561    -0.38100
N1186       N  0.43179378  0.62231985  0.87570243    -0.38100
C1187       C  0.02529632  0.73278272  0.98445912    -0.04700
C1188       C  0.99737858  0.71445619  0.99955382    -0.01900
C1189       C  0.48114631  0.72950820  0.01136935     0.03100
C1190       C  0.49554290  0.76058516  0.01422081    -0.04700
C1191       C  0.02191756  0.77592944  0.99879882    -0.01800
C1192       C  0.03785542  0.76352143  0.98469770     0.03100
C1193       C  0.48281703  0.68442508  0.99896714     0.37800
C1194       C  0.03463814  0.80761033  0.99728564     0.37800
C1195       C  0.06703165  0.78245260  0.96969655     0.36200
C1196       C  0.45050142  0.71069716  0.02167502     0.36200
N1197       N  0.09036729  0.79783779  0.95818707    -0.38600
N1198       N  0.42608798  0.69550811  0.02969628    -0.38600
N1199       N  0.04503571  0.83287372  0.99599698    -0.38100
N1200       N  0.47159967  0.65908470  0.99867704    -0.38100
C1201       C  0.49505137  0.64702008  0.71147314    -0.04700
C1202       C  0.48110666  0.65394358  0.73907803    -0.01900
C1203       C  0.99059295  0.65221594  0.76624119     0.03100
C1204       C  0.01826560  0.65496409  0.77471691    -0.04700
C1205       C  0.03422994  0.65110754  0.74638691    -0.01800
C1206       C  0.02312561  0.64554586  0.71027954     0.03100
C1207       C  0.45523881  0.65585096  0.73068121     0.37800
C1208       C  0.06284388  0.65462196  0.75375614     0.37800
C1209       C  0.04075044  0.64433335  0.68082147     0.36200
C1210       C  0.97345277  0.65666860  0.79370349     0.36200
N1211       N  0.05497707  0.64373613  0.65724604    -0.38600
N1212       N  0.95992068  0.66101034  0.81494962    -0.38600
N1213       N  0.08569150  0.65744591  0.75966910    -0.38100
N1214       N  0.43482848  0.65772066  0.72392524    -0.38100
C1215       C  0.03704273  0.65142021  0.54354485    -0.04700
C1216       C  0.06533876  0.67656090  0.54847064    -0.01900
C1217       C  0.08822840  0.68382680  0.52294960     0.03100
C1218       C  0.08293706  0.66678349  0.49096678    -0.04700
C1219       C  0.05463455  0.64095422  0.48689289    -0.01800
C1220       C  0.03242063  0.63299699  0.51352087     0.03100
C1221       C  0.07069868  0.69560778  0.57951520     0.37800
C1222       C  0.04683797  0.62362345  0.45377215     0.37800
C1223       C  0.00393286  0.60672378  0.50826691     0.36200
C1224       C  0.11683683  0.70973723  0.52918828     0.36200
N1225       N  0.48011603  0.58117612  0.51860493    -0.38600
N1226       N  0.13952355  0.73052986  0.53425320    -0.38600
N1227       N  0.04043379  0.60972905  0.42741186    -0.38100
N1228       N  0.07479596  0.71088802  0.60413161    -0.38100
C1229       C  0.46784092  0.71530976  0.50981382    -0.04700
C1230       C  0.46818346  0.74124136  0.51978071    -0.01900
C1231       C  0.48512187  0.76700729  0.49981431     0.03100
C1232       C  0.99807822  0.76738702  0.46513814    -0.04700
C1233       C  0.99391055  0.74055197  0.45105567    -0.01800
C1234       C  0.98028870  0.71513930  0.47256613     0.03100
C1235       C  0.44806362  0.74023391  0.54711389     0.37800
C1236       C  0.00194511  0.73832240  0.41405178     0.37800
C1237       C  0.98049999  0.68883645  0.46155020     0.36200
C1238       C  0.49022868  0.79502414  0.51338589     0.36200
N1239       N  0.98076008  0.66788663  0.45287752    -0.38600
N1240       N  0.49457582  0.81739630  0.52451216    -0.38600
N1241       N  0.00678617  0.73507318  0.38428709    -0.38100
N1242       N  0.43044080  0.73915330  0.56673957    -0.38100
C1243       C  0.38401081  0.52541280  0.44849985    -0.04700
C1244       C  0.38572672  0.55312498  0.44538216    -0.01900
C1245       C  0.39731196  0.57399863  0.47391224     0.03100
C1246       C  0.40662887  0.56746284  0.50684484    -0.04700
C1247       C  0.40651466  0.54042917  0.50923460    -0.01800
C1248       C  0.39582464  0.51993511  0.48010761     0.03100
C1249       C  0.37419740  0.55996742  0.41341928     0.37800
C1250       C  0.41570338  0.53247834  0.54246866     0.37800
C1251       C  0.39796903  0.99762288  0.46553728     0.36200
C1252       C  0.39944820  0.60232772  0.46908293     0.36200
N1253       N  0.40087327  0.97731908  0.46636807    -0.38600
N1254       N  0.40108335  0.62486821  0.46513997    -0.38600
N1255       N  0.42301231  0.52593841  0.56881238    -0.38100
N1256       N  0.36458837  0.56561840  0.38848616    -0.38100
C1257       C  0.08764225  0.79076701  0.86689728    -0.04700
C1258       C  0.11796762  0.81144259  0.87052813    -0.01900
C1259       C  0.12803719  0.84170175  0.87169275     0.03100
C1260       C  0.10803983  0.85210404  0.87023606    -0.04700
C1261       C  0.07805138  0.83179624  0.86315942    -0.01800
C1262       C  0.06789182  0.80122934  0.86109810     0.03100
C1263       C  0.13908558  0.80183421  0.87641126     0.37800
C1264       C  0.05720032  0.84199237  0.86123716     0.37800
C1265       C  0.03673443  0.78064242  0.85621373     0.36200
C1266       C  0.15930049  0.86159658  0.87635003     0.36200
N1267       N  0.01184340  0.76431732  0.85223452    -0.38600
N1268       N  0.18448927  0.87523273  0.88029686    -0.38600
N1269       N  0.04059592  0.85017353  0.85984999    -0.38100
N1270       N  0.15622358  0.79488151  0.88248733    -0.38100
C1271       C  0.15735597  0.53179464  0.93655853    -0.04700
C1272       C  0.18199963  0.56053608  0.93163408    -0.01900
C1273       C  0.19467019  0.58028188  0.96142986     0.03100
C1274       C  0.18298102  0.57198706  0.99721516    -0.04700
C1275       C  0.15787665  0.54331104  0.00177378    -0.01800
C1276       C  0.14450159  0.52439934  0.97170313     0.03100
C1277       C  0.19369622  0.57082719  0.89546256     0.37800
C1278       C  0.14479626  0.53254819  0.03738460     0.37800
C1279       C  0.11642637  0.49776842  0.97755492     0.36200
C1280       C  0.22014314  0.60910777  0.95464513     0.36200
N1281       N  0.08393144  0.97585948  0.97105714    -0.38600
N1282       N  0.24044447  0.63205102  0.94899237    -0.38600
N1283       N  0.13420193  0.52351695  0.06553482    -0.38100
N1284       N  0.20308302  0.57958681  0.86677392    -0.38100
C1285       C  0.24074524  0.01499167  0.96440325    -0.04700
C1286       C  0.22892480  0.50848502  0.01327858    -0.01900
C1287       C  0.25156976  0.51103562  0.03556541     0.03100
C1288       C  0.27987003  0.52033147  0.02054605    -0.04700
C1289       C  0.29293707  0.03370309  0.97249116    -0.01800
C1290       C  0.26834485  0.02176736  0.94969220     0.03100
C1291       C  0.19992391  0.49908034  0.02820990     0.37800
C1292       C  0.32004885  0.03537196  0.96085428     0.37800
C1293       C  0.27131326  0.01524415  0.91214182     0.36200
C1294       C  0.24407901  0.50077632  0.07271987     0.36200
N1295       N  0.27419543  0.01064349  0.88211131    -0.38600
N1296       N  0.23706173  0.49121042  0.10167467    -0.38600
N1297       N  0.34164640  0.03661977  0.95170477    -0.38100
N1298       N  0.17680703  0.49152482  0.03997344    -0.38100
C1299       C  0.08369957  0.91018252  0.99523536    -0.04700
C1300       C  0.09009163  0.90730938  0.03196179    -0.01900
C1301       C  0.06716617  0.89382401  0.05814688     0.03100
C1302       C  0.03723468  0.88199947  0.04798829    -0.04700
C1303       C  0.03119447  0.88676930  0.01194268    -0.01800
C1304       C  0.05411155  0.90170403  0.98641777     0.03100
C1305       C  0.12012552  0.91739869  0.04315261     0.37800
C1306       C  0.00113900  0.87380788  0.99914830     0.37800
C1307       C  0.04652694  0.90773376  0.95070416     0.36200
C1308       C  0.07466249  0.89202564  0.09559740     0.36200
N1309       N  0.04030403  0.91243197  0.92230923    -0.38600
N1310       N  0.08105615  0.89089771  0.12541719    -0.38600
N1311       N  0.47643421  0.85471529  0.98904831    -0.38100
N1312       N  0.14400433  0.92540256  0.05228807    -0.38100
C1313       C  0.17253643  0.58678091  0.49180131    -0.04700
C1314       C  0.14798396  0.59096523  0.49550218    -0.01900
C1315       C  0.13892489  0.60211177  0.46635384     0.03100
C1316       C  0.15548564  0.61173605  0.43396061    -0.04700
C1317       C  0.17866864  0.60584491  0.42917464    -0.01800
C1318       C  0.18698498  0.59328778  0.45759996     0.03100
C1319       C  0.13277135  0.58578564  0.53007488     0.37800
C1320       C  0.19412241  0.61286488  0.39465570     0.37800
C1321       C  0.21060967  0.58733434  0.45136642     0.36200
C1322       C  0.11288534  0.60440606  0.47063165     0.36200
N1323       N  0.22952245  0.58266780  0.44625140    -0.38600
N1324       N  0.09157517  0.60517296  0.47495620    -0.38600
N1325       N  0.20635456  0.61845078  0.36707350    -0.38100
N1326       N  0.12041498  0.58164300  0.55742336    -0.38100
C1327       C  0.29130797  0.55186452  0.63175457    -0.04700
C1328       C  0.30373165  0.53586797  0.61678971    -0.01900
C1329       C  0.33434529  0.54634898  0.62046409     0.03100
C1330       C  0.35255997  0.57233943  0.64029623    -0.04700
C1331       C  0.33864215  0.58426823  0.66140387    -0.01800
C1332       C  0.30846092  0.57478592  0.65628427     0.03100
C1333       C  0.28496614  0.50858155  0.59779404     0.37800
C1334       C  0.35583963  0.60709290  0.68760501     0.37800
C1335       C  0.29539899  0.58941033  0.67520682     0.36200
C1336       C  0.34727065  0.53127135  0.60228391     0.36200
N1337       N  0.28515086  0.60121588  0.69047074    -0.38600
N1338       N  0.35743579  0.51894758  0.58805437    -0.38600
N1339       N  0.36931474  0.62506861  0.70895350    -0.38100
N1340       N  0.26990313  0.48635158  0.58349428    -0.38100
C1341       C  0.14710368  0.98345047  0.78024135    -0.04700
C1342       C  0.17679347  0.51711829  0.77173470    -0.01900
C1343       C  0.18058621  0.53066924  0.73760032     0.03100
C1344       C  0.15970754  0.51622594  0.71004656    -0.04700
C1345       C  0.12869592  0.98632093  0.72041018    -0.01800
C1346       C  0.12365875  0.97319728  0.75517547     0.03100
C1347       C  0.20005924  0.53104505  0.79860877     0.37800
C1348       C  0.10550647  0.97463282  0.69334861     0.37800
C1349       C  0.09513421  0.94814754  0.76415733     0.36200
C1350       C  0.20648493  0.55900622  0.73026139     0.36200
N1351       N  0.07232770  0.92825494  0.77148451    -0.38600
N1352       N  0.22685782  0.58187505  0.72460079    -0.38600
N1353       N  0.08689122  0.96543525  0.67189538    -0.38100
N1354       N  0.21887251  0.54193833  0.81970161    -0.38100
C1355       C  0.08750027  0.92059878  0.49615222    -0.04700
C1356       C  0.08674428  0.90992485  0.53200216    -0.01900
C1357       C  0.09798258  0.92966073  0.56170797     0.03100
C1358       C  0.10838652  0.95987880  0.55678166    -0.04700
C1359       C  0.10331855  0.96922914  0.52314670    -0.01800
C1360       C  0.09492305  0.95055188  0.49245633     0.03100
C1361       C  0.07578441  0.87897425  0.53882396     0.37800
C1362       C  0.10690072  0.99821845  0.51978800     0.37800
C1363       C  0.09538851  0.96321691  0.45721823     0.36200
C1364       C  0.09971154  0.91910840  0.59752382     0.36200
N1365       N  0.09624249  0.97376546  0.42928179    -0.38600
N1366       N  0.10103984  0.91066908  0.62611311    -0.38600
N1367       N  0.10837149  0.02071570  0.51648094    -0.38100
N1368       N  0.06698901  0.85430239  0.54441544    -0.38100
C1369       C  0.25743377  0.96363784  0.47757574    -0.04700
C1370       C  0.22655478  0.94975939  0.47938359    -0.01900
C1371       C  0.21369166  0.96436739  0.49605515     0.03100
C1372       C  0.23513850  0.50102137  0.50791598    -0.04700
C1373       C  0.26588616  0.51364344  0.50740958    -0.01800
C1374       C  0.27787227  0.49649880  0.49712819     0.03100
C1375       C  0.20817267  0.92094386  0.46329573     0.37800
C1376       C  0.28522537  0.54398108  0.51842819     0.37800
C1377       C  0.30924986  0.50810149  0.50039805     0.36200
C1378       C  0.18194859  0.95037104  0.49861447     0.36200
N1379       N  0.33418600  0.51728395  0.50391798    -0.38600
N1380       N  0.15661822  0.93919014  0.50044142    -0.38600
N1381       N  0.30096456  0.56819891  0.52672906    -0.38100
N1382       N  0.19343351  0.89795982  0.45053233    -0.38100
C1383       C  0.38340395  0.84022390  0.93915115    -0.04700
C1384       C  0.40210326  0.86163235  0.96477986    -0.01900
C1385       C  0.41469819  0.85394528  0.99394943     0.03100
C1386       C  0.40812296  0.82438134  0.99885992    -0.04700
C1387       C  0.39040852  0.80341639  0.97219549    -0.01800
C1388       C  0.37976914  0.81168062  0.94179888     0.03100
C1389       C  0.40803814  0.89155032  0.96196435     0.37800
C1390       C  0.38083803  0.77253921  0.97708252     0.37800
C1391       C  0.36463501  0.79022595  0.91318533     0.36200
C1392       C  0.43455207  0.87688954  0.01874634     0.36200
N1393       N  0.35263968  0.77311811  0.89041213    -0.38600
N1394       N  0.45049504  0.89529605  0.03828526    -0.38600
N1395       N  0.37284057  0.74784362  0.98117531    -0.38100
N1396       N  0.41319437  0.91560038  0.95994029    -0.38100
C1397       C  0.23889858  0.72360383  0.00996244    -0.04700
C1398       C  0.21860848  0.73080979  0.99527525    -0.01900
C1399       C  0.22876084  0.75808634  0.97851333     0.03100
C1400       C  0.25908758  0.77822968  0.97709140    -0.04700
C1401       C  0.27927724  0.77189297  0.99337771    -0.01800
C1402       C  0.26948692  0.74399122  0.00797507     0.03100
C1403       C  0.18738897  0.70984769  0.99605301     0.37800
C1404       C  0.31002502  0.79458160  0.99594530     0.37800
C1405       C  0.29106383  0.73693020  0.02162287     0.36200
C1406       C  0.20815814  0.76519416  0.96182201     0.36200
N1407       N  0.30838885  0.73143621  0.03223129    -0.38600
N1408       N  0.19170338  0.77086240  0.94869211    -0.38600
N1409       N  0.33434659  0.81294059  0.99909448    -0.38100
N1410       N  0.16237170  0.69340857  0.99646858    -0.38100
C1411       C  0.21407665  0.77045411  0.84521338    -0.04700
C1412       C  0.20696974  0.74248421  0.85870130    -0.01900
C1413       C  0.17718841  0.72012190  0.86290493     0.03100
C1414       C  0.15449935  0.72493587  0.85123252    -0.04700
C1415       C  0.16204414  0.75049855  0.83075510    -0.01800
C1416       C  0.19171885  0.77364372  0.82871952     0.03100
C1417       C  0.23020235  0.73731417  0.87050033     0.37800
C1418       C  0.13887252  0.75366787  0.81410934     0.37800
C1419       C  0.19917828  0.80102479  0.81080854     0.36200
C1420       C  0.17003077  0.69329679  0.88200675     0.36200
N1421       N  0.20510700  0.82281839  0.79629192    -0.38600
N1422       N  0.16488258  0.67207166  0.89737144    -0.38600
N1423       N  0.12025583  0.75599642  0.80085040    -0.38100
N1424       N  0.24867711  0.73292228  0.87940150    -0.38100
C1425       C  0.28263181  0.92321461  0.85906965    -0.04700
C1426       C  0.28283264  0.93889340  0.89009542    -0.01900
C1427       C  0.25883593  0.94268303  0.89768109     0.03100
C1428       C  0.23773683  0.93722271  0.87050236    -0.04700
C1429       C  0.24060525  0.92674283  0.83625588    -0.01800
C1430       C  0.26208503  0.91836943  0.83125948     0.03100
C1431       C  0.30783638  0.95158274  0.91425225     0.37800
C1432       C  0.21989247  0.92204244  0.80749492     0.37800
C1433       C  0.26290679  0.90440624  0.79778210     0.36200
C1434       C  0.25515210  0.95042969  0.93438248     0.36200
N1435       N  0.26360210  0.89353694  0.77078067    -0.38600
N1436       N  0.25197096  0.95575974  0.96396953    -0.38600
N1437       N  0.20335093  0.91830361  0.78452798    -0.38100
N1438       N  0.32800640  0.96353958  0.93317041    -0.38100
C1439       C  0.33329644  0.92177203  0.98695571    -0.04700
C1440       C  0.31410852  0.91616831  0.01667824    -0.01900
C1441       C  0.32108882  0.93789430  0.04366488     0.03100
C1442       C  0.34795300  0.96522743  0.04232646    -0.04700
C1443       C  0.36853736  0.96946132  0.01495676    -0.01800
C1444       C  0.36109300  0.94831648  0.98706985     0.03100
C1445       C  0.28728089  0.88784246  0.01995566     0.37800
C1446       C  0.39796443  0.49341431  0.02404003     0.37800
C1447       C  0.38109032  0.95572081  0.95649102     0.36200
C1448       C  0.30026488  0.93201480  0.07284669     0.36200
N1449       N  0.39685657  0.96197283  0.93191406    -0.38600
N1450       N  0.28353634  0.92730977  0.09593334    -0.38600
N1451       N  0.42054433  0.51481046  0.02169488    -0.38100
N1452       N  0.26598238  0.86516128  0.02277642    -0.38100
C1453       C  0.36585521  0.88163799  0.54365708    -0.04700
C1454       C  0.37556076  0.88361013  0.50721215    -0.01900
C1455       C  0.36614327  0.89551651  0.47940143     0.03100
C1456       C  0.34351928  0.90188544  0.48589520    -0.04700
C1457       C  0.33367715  0.90017040  0.52211154    -0.01800
C1458       C  0.34570910  0.89145858  0.55089612     0.03100
C1459       C  0.39239296  0.87027297  0.49632416     0.37800
C1460       C  0.31165004  0.90809356  0.53001621     0.37800
C1461       C  0.33734943  0.89294159  0.58804931     0.36200
C1462       C  0.37941865  0.90022114  0.44354511     0.36200
N1463       N  0.33080312  0.89444957  0.61764398    -0.38600
N1464       N  0.39045185  0.90436119  0.41526353    -0.38600
N1465       N  0.29396547  0.91430233  0.53628946    -0.38100
N1466       N  0.40481154  0.85919473  0.48502708    -0.38100
C1467       C  0.29134664  0.76868438  0.50695995    -0.04700
C1468       C  0.27070019  0.77837070  0.51109847    -0.01900
C1469       C  0.24278330  0.76253954  0.49488105     0.03100
C1470       C  0.23464996  0.73620896  0.47615168    -0.04700
C1471       C  0.25452092  0.72578637  0.47393661    -0.01800
C1472       C  0.28357844  0.74356903  0.48557244     0.03100
C1473       C  0.27783132  0.80500014  0.53094527     0.37800
C1474       C  0.24535537  0.69695480  0.45878505     0.37800
C1475       C  0.30586606  0.73770591  0.47171573     0.36200
C1476       C  0.22300301  0.77412597  0.49641021     0.36200
N1477       N  0.32356042  0.73343082  0.45940475    -0.38600
N1478       N  0.20737241  0.78350220  0.49766034    -0.38600
N1479       N  0.23818487  0.67391693  0.44714122    -0.38100
N1480       N  0.28322732  0.82613494  0.54669102    -0.38100
C1481       C  0.28976536  0.70746912  0.60785599    -0.04700
C1482       C  0.28845470  0.69000990  0.57802581    -0.01900
C1483       C  0.26572342  0.66064832  0.57525709     0.03100
C1484       C  0.24566810  0.64673255  0.60435127    -0.04700
C1485       C  0.24671915  0.66397936  0.63435944    -0.01800
C1486       C  0.26821565  0.69456651  0.63556392     0.03100
C1487       C  0.31151182  0.70153173  0.55060512     0.37800
C1488       C  0.22686661  0.65001574  0.66462109     0.37800
C1489       C  0.26945730  0.71222353  0.66636127     0.36200
C1490       C  0.26396876  0.64471674  0.54218429     0.36200
N1491       N  0.27054767  0.72638185  0.69098872    -0.38600
N1492       N  0.26379035  0.63318387  0.51535646    -0.38600
N1493       N  0.21104637  0.63874489  0.68884187    -0.38100
N1494       N  0.33024219  0.70995953  0.52935174    -0.38100
C1495       C  0.35161450  0.85589749  0.77702996    -0.04700
C1496       C  0.37815896  0.85659650  0.76908178    -0.01900
C1497       C  0.38364293  0.85026745  0.73353287     0.03100
C1498       C  0.36231234  0.84270099  0.70594053    -0.04700
C1499       C  0.33638847  0.84354468  0.71373469    -0.01800
C1500       C  0.33099306  0.84978266  0.74918122     0.03100
C1501       C  0.39909684  0.86232548  0.79799179     0.37800
C1502       C  0.31496072  0.83781190  0.68539489     0.37800
C1503       C  0.30323471  0.84799185  0.75768838     0.36200
C1504       C  0.41043851  0.84990336  0.72598072     0.36200
N1505       N  0.28101922  0.84622014  0.76478436    -0.38600
N1506       N  0.43182207  0.84963062  0.71986508    -0.38600
N1507       N  0.29774378  0.83317936  0.66296825    -0.38100
N1508       N  0.41572829  0.86677716  0.82112186    -0.38100
C1509       C  0.42502227  0.76907929  0.64370510    -0.04700
C1510       C  0.45403712  0.77471876  0.63967408    -0.01900
C1511       C  0.45985772  0.75117561  0.64110933     0.03100
C1512       C  0.43617587  0.72156036  0.64335258    -0.04700
C1513       C  0.40784493  0.71666453  0.65159638    -0.01800
C1514       C  0.40302757  0.74060592  0.65449531     0.03100
C1515       C  0.47728547  0.80418868  0.63056804     0.37800
C1516       C  0.38286266  0.68703723  0.65353507     0.37800
C1517       C  0.37462163  0.73570524  0.66615109     0.36200
C1518       C  0.48963748  0.75728405  0.63534963     0.36200
N1519       N  0.35212954  0.73173023  0.67633702    -0.38600
N1520       N  0.51343087  0.76219669  0.63084075    -0.38600
N1521       N  0.36232133  0.66369575  0.65404899    -0.38100
N1522       N  0.49588570  0.82771062  0.62325350    -0.38100
C1523       C  0.44205742  0.83074680  0.49679444    -0.04700
C1524       C  0.43926949  0.80963169  0.47080722    -0.01900
C1525       C  0.45711000  0.81821649  0.43924539     0.03100
C1526       C  0.47954892  0.84800876  0.43388036    -0.04700
C1527       C  0.48108940  0.86928653  0.45884733    -0.01800
C1528       C  0.46332764  0.86070348  0.49051733     0.03100
C1529       C  0.41941001  0.77849012  0.47759777     0.37800
C1530       C  0.00725861  0.89858342  0.46878026     0.37800
C1531       C  0.46667393  0.88316383  0.51609536     0.36200
C1532       C  0.45171576  0.79584533  0.41246185     0.36200
N1533       N  0.46938531  0.90116314  0.53633049    -0.38600
N1534       N  0.44688767  0.77773208  0.39127162    -0.38600
N1535       N  0.02636324  0.92275061  0.46971706    -0.38100
N1536       N  0.40380878  0.75366588  0.48311283    -0.38100
Fe1537     Fe  0.83314369  0.30719247  0.59983581     1.65800
Fe1538     Fe  0.90659190  0.33732303  0.60244872     1.73200
Fe1539     Fe  0.86451005  0.27224473  0.56328001     1.54400
O1540       O  0.83680674  0.24525652  0.60291498    -0.81100
O1541       O  0.92816746  0.33220723  0.55751679    -0.79400
O1542       O  0.80505054  0.26082362  0.60478215    -0.83600
O1543       O  0.82419872  0.30519433  0.54620952    -0.78400
O1544       O  0.89868714  0.27283065  0.59159983    -0.80200
O1545       O  0.89808057  0.36454903  0.56946192    -0.83000
C1546       C  0.81700380  0.28272491  0.52731758     0.97800
C1547       C  0.81070524  0.23999161  0.60604554     1.05200
O1548       O  0.86818866  0.30527886  0.58926937    -1.11900
O1549       O  0.88967030  0.34682288  0.64929536    -0.74400
O1550       O  0.84256017  0.31116743  0.65382956    -0.77900
O1551       O  0.82888760  0.26718566  0.53251979    -0.78600
C1552       C  0.86533728  0.33328642  0.66681122     0.96700
O1553       O  0.85534686  0.35264095  0.59411171    -0.76500
O1554       O  0.91522501  0.30878475  0.63305431    -0.81700
C1555       C  0.91896319  0.31912965  0.52707105     0.99300
C1556       C  0.91210129  0.28454356  0.62114168     1.05200
O1557       O  0.89262532  0.29828817  0.52302964    -0.77300
C1558       C  0.87507251  0.36669064  0.57034604     1.03500
Fe1559     Fe  0.80158144  0.31300200  0.87117394     1.65800
Fe1560     Fe  0.84121587  0.38704722  0.88110712     1.73200
Fe1561     Fe  0.76981360  0.34955791  0.90437298     1.54400
O1562       O  0.73967186  0.31184484  0.87502533    -0.81100
O1563       O  0.84026888  0.39696744  0.93475292    -0.79400
O1564       O  0.76511688  0.29963772  0.83818351    -0.83600
O1565       O  0.77489115  0.29189145  0.91407753    -0.78400
O1566       O  0.77160933  0.37519621  0.86189635    -0.80200
O1567       O  0.86727890  0.36911472  0.89932009    -0.83000
C1568       C  0.76643856  0.29918291  0.94234780     0.97800
C1569       C  0.74074566  0.29556173  0.85015918     1.05200
O1570       O  0.80427674  0.34982395  0.88515456    -1.11900
O1571       O  0.84540573  0.37922290  0.82672952    -0.74400
O1572       O  0.82862545  0.33083132  0.82675640    -0.77900
O1573       O  0.76706512  0.32330562  0.94636200    -0.78600
C1574       C  0.84163613  0.35586854  0.81156159     0.96700
O1575       O  0.83595412  0.32113652  0.90452758    -0.76500
O1576       O  0.81877107  0.41010108  0.86640773    -0.81700
C1577       C  0.82078040  0.40010483  0.95053924     0.99300
C1578       C  0.79177267  0.40178961  0.85916761     1.05200
O1579       O  0.79422214  0.38666225  0.93890886    -0.77300
C1580       C  0.86047130  0.34372407  0.91178215     1.03500
Fe1581     Fe  0.69932230  0.00751261  0.60947282     1.65800
Fe1582     Fe  0.67037237  0.05210869  0.59862774     1.73200
Fe1583     Fe  0.73608031  0.06981058  0.56196100     1.54400
O1584       O  0.76459695  0.06038719  0.59134125    -0.81100
O1585       O  0.66705240  0.06060857  0.54494356    -0.79400
O1586       O  0.73940703  0.03003150  0.63663923    -0.83600
O1587       O  0.72003855  0.00291904  0.56531924    -0.78400
O1588       O  0.74493100  0.10191957  0.59868490    -0.80200
O1589       O  0.63727240  0.00803678  0.58718641    -0.83000
C1590       C  0.72716133  0.01421857  0.53394321     0.97800
C1591       C  0.76363249  0.04700291  0.62066673     1.05200
O1592       O  0.70175561  0.04320524  0.59030323    -1.11900
O1593       O  0.66906815  0.04399923  0.65419132    -0.74400
O1594       O  0.67734599  0.00655409  0.65576248    -0.77900
O1595       O  0.72829696  0.03791486  0.52502105    -0.78600
C1596       C  0.66873921  0.02254710  0.67042711     0.96700
O1597       O  0.65861656  0.47732955  0.58612668    -0.76500
O1598       O  0.70117831  0.09809892  0.60620221    -0.81700
C1599       C  0.68707531  0.07752409  0.52318710     0.99300
C1600       C  0.72939251  0.11356570  0.60403327     1.05200
O1601       O  0.71367157  0.08406663  0.52749158    -0.77300
C1602       C  0.63596092  0.47939922  0.58145426     1.03500
Fe1603     Fe  0.68555330  0.48101731  0.87118319     1.65800
Fe1604     Fe  0.61398424  0.44222573  0.88906584     1.73200
Fe1605     Fe  0.65908856  0.42432006  0.93057479     1.54400
O1606       O  0.68826388  0.41981989  0.89698552    -0.81100
O1607       O  0.59521243  0.41848551  0.93577919    -0.79400
O1608       O  0.70745872  0.45842138  0.85931347    -0.83600
O1609       O  0.70936659  0.49667078  0.91569573    -0.78400
O1610       O  0.62416549  0.38757639  0.90587744    -0.80200
O1611       O  0.62864138  0.48159218  0.91783360    -0.83000
C1612       C  0.71185614  0.48574506  0.94469732     0.97800
C1613       C  0.70722065  0.43624639  0.87338631     1.05200
O1614       O  0.65332867  0.44862666  0.89650869    -1.11900
O1615       O  0.62346599  0.46507677  0.83967608    -0.74400
O1616       O  0.66439347  0.46708259  0.82319779    -0.77900
O1617       O  0.69457685  0.45951164  0.95518711    -0.78600
C1618       C  0.64336234  0.47099708  0.81635264     0.96700
O1619       O  0.66225948  0.01182475  0.87859465    -0.76500
O1620       O  0.60251579  0.40209306  0.86406770    -0.81700
C1621       C  0.60561810  0.41961816  0.96692790     0.99300
C1622       C  0.60759552  0.38269160  0.87806614     1.05200
O1623       O  0.63245026  0.42728815  0.97020292    -0.77300
C1624       C  0.64535175  0.00756856  0.90556800     1.03500
Fe1625     Fe  0.98576143  0.18093283  0.60751306     1.65800
Fe1626     Fe  0.94919272  0.10624626  0.61162197     1.73200
Fe1627     Fe  0.91664005  0.14161132  0.57483813     1.54400
O1628       O  0.92321398  0.17925186  0.60321071    -0.81100
O1629       O  0.93593330  0.08830523  0.56069035    -0.79400
O1630       O  0.96296135  0.19564680  0.63843441    -0.83600
O1631       O  0.97950060  0.20089268  0.56320158    -0.78400
O1632       O  0.88892859  0.11647612  0.61530237    -0.80200
O1633       O  0.99291154  0.12221208  0.59268007    -0.83000
C1634       C  0.96267505  0.19278173  0.53581952     0.97800
C1635       C  0.94062128  0.19677788  0.62759796     1.05200
O1636       O  0.95036865  0.14275541  0.59826430    -1.11900
O1637       O  0.96318691  0.12114398  0.66432160    -0.74400
O1638       O  0.99767113  0.16775889  0.65406641    -0.77900
O1639       O  0.94106503  0.16704905  0.53219513    -0.78600
C1640       C  0.98503422  0.14547138  0.67458724     0.96700
O1641       O  0.50201090  0.16931811  0.56406775    -0.76500
O1642       O  0.90421202  0.08517980  0.62908599    -0.81700
C1643       C  0.91715986  0.08761077  0.53863806     0.99300
C1644       C  0.88447785  0.09263176  0.62916218     1.05200
O1645       O  0.90624394  0.10423129  0.54287601    -0.77300
C1646       C  0.50730399  0.14845399  0.56386602     1.03500
Fe1647     Fe  0.52817671  0.20229667  0.87800079     1.65800
Fe1648     Fe  0.55870807  0.15884667  0.87906285     1.73200
Fe1649     Fe  0.59230409  0.22553259  0.92211671     1.54400
O1650       O  0.59080519  0.26028658  0.89586559    -0.81100
O1651       O  0.57277365  0.15268786  0.92887124    -0.79400
O1652       O  0.55609166  0.24160311  0.85314438    -0.83600
O1653       O  0.53077094  0.22402230  0.92471806    -0.78400
O1654       O  0.62193958  0.22815402  0.88456387    -0.80200
O1655       O  0.51548812  0.13368904  0.90124965    -0.83000
C1656       C  0.54329148  0.22841426  0.95519399     0.97800
C1657       C  0.57652032  0.26341448  0.86989037     1.05200
O1658       O  0.56000698  0.19551549  0.89252151    -1.11900
O1659       O  0.54317838  0.15673416  0.82632508    -0.74400
O1660       O  0.51993420  0.18166020  0.82855875    -0.77900
O1661       O  0.56466423  0.22465461  0.96136644    -0.78600
C1662       C  0.52692822  0.16520648  0.81181478     0.96700
O1663       O  0.99834180  0.15329260  0.89451305    -0.76500
O1664       O  0.60273933  0.18351485  0.85841133    -0.81700
C1665       C  0.58813858  0.16869346  0.95491645     0.99300
C1666       C  0.62362582  0.21038873  0.86281404     1.05200
O1667       O  0.59812052  0.19625694  0.95484165    -0.77300
C1668       C  0.00077654  0.13523584  0.91509632     1.03500
Fe1669     Fe  0.68896221  0.19748883  0.37277367     1.65800
Fe1670     Fe  0.65625765  0.22938084  0.41706991     1.73200
Fe1671     Fe  0.61440714  0.15932921  0.38597710     1.54400
O1672       O  0.62160206  0.15384594  0.33155382    -0.81100
O1673       O  0.62204113  0.20513579  0.45440888    -0.79400
O1674       O  0.67000630  0.17297821  0.32742962    -0.83600
O1675       O  0.68054966  0.16114690  0.40244293    -0.78400
O1676       O  0.59405295  0.18363335  0.36994557    -0.80200
O1677       O  0.68579116  0.22946820  0.45399842    -0.83000
C1678       C  0.65741944  0.13845698  0.41346933     0.97800
C1679       C  0.64448600  0.15885156  0.31417388     1.05200
O1680       O  0.65289821  0.19537441  0.39137481    -1.11900
O1681       O  0.69158236  0.25978878  0.38470347    -0.74400
O1682       O  0.70186311  0.23553587  0.34326373    -0.77900
O1683       O  0.63149337  0.13316785  0.40556067    -0.78600
C1684       C  0.70623732  0.25943645  0.35728274     0.96700
O1685       O  0.71366795  0.22227152  0.41493054    -0.76500
O1686       O  0.62689166  0.23112087  0.38177914    -0.81700
C1687       C  0.60331285  0.17817880  0.46051977     0.99300
C1688       C  0.60192496  0.21105006  0.37026927     1.05200
O1689       O  0.60091011  0.15860275  0.43870530    -0.77300
C1690       C  0.70952679  0.23026188  0.44556380     1.03500
Fe1691     Fe  0.69821291  0.17815266  0.10488506     1.65800
Fe1692     Fe  0.73591679  0.15181218  0.05931301     1.73200
Fe1693     Fe  0.67382136  0.10543334  0.10282204     1.54400
O1694       O  0.65968439  0.11707982  0.15018111    -0.81100
O1695       O  0.70909541  0.12038853  0.02116556    -0.79400
O1696       O  0.69175814  0.16421505  0.15729413    -0.83600
O1697       O  0.65350886  0.15473042  0.09198833    -0.78400
O1698       O  0.70663930  0.10153379  0.13178404    -0.80200
O1699       O  0.73450388  0.18254544  0.02760088    -0.83000
C1700       C  0.63911920  0.13287012  0.07076693     0.97800
C1701       C  0.67038444  0.14054414  0.16883519     1.05200
O1702       O  0.70316505  0.14555025  0.08930625    -1.11900
O1703       O  0.76582835  0.18506300  0.09385842    -0.74400
O1704       O  0.74211142  0.20587707  0.11828294    -0.77900
O1705       O  0.64345923  0.11098505  0.07102363    -0.78600
C1706       C  0.76547756  0.20514170  0.11278697     0.96700
O1707       O  0.70544858  0.19612706  0.05461308    -0.76500
O1708       O  0.74118834  0.12149927  0.08850371    -0.81700
C1709       C  0.69048317  0.09347292  0.02680403     0.99300
C1710       C  0.73189326  0.10798353  0.11860239     1.05200
O1711       O  0.68069450  0.08491127  0.05863002    -0.77300
C1712       C  0.72275023  0.19823036  0.02954410     1.03500
Fe1713     Fe  0.80398896  0.47496093  0.37580408     1.65800
Fe1714     Fe  0.78018161  0.41207396  0.42353432     1.73200
Fe1715     Fe  0.84511828  0.44166102  0.37781537     1.54400
O1716       O  0.84646443  0.45564433  0.32484931    -0.81100
O1717       O  0.80863936  0.40598733  0.45616787    -0.79400
O1718       O  0.82373614  0.48124724  0.32600800    -0.83600
O1719       O  0.84311708  0.99921961  0.41380351    -0.78400
O1720       O  0.81871755  0.39741524  0.35871026    -0.80200
O1721       O  0.78272192  0.44166431  0.46091187    -0.83000
C1722       C  0.86678553  0.00001615  0.42260029     0.97800
C1723       C  0.83880180  0.47227759  0.30983509     1.05200
O1724       O  0.80980706  0.44267165  0.39185930    -1.11900
O1725       O  0.74640316  0.41375003  0.39757236    -0.74400
O1726       O  0.76340594  0.44687010  0.35294337    -0.77900
O1727       O  0.87193337  0.48523853  0.39825674    -0.78600
C1728       C  0.74225060  0.42627093  0.37061931     0.96700
O1729       O  0.78337625  0.47463367  0.42252837    -0.76500
O1730       O  0.77548500  0.38043327  0.38765206    -0.81700
C1731       C  0.83567107  0.41421434  0.45475470     0.99300
C1732       C  0.79178109  0.37736969  0.36477906     1.05200
O1733       O  0.85133663  0.42809339  0.42771897    -0.77300
C1734       C  0.77880297  0.46276714  0.45345220     1.03500
Fe1735     Fe  0.82085510  0.01813324  0.11445508     1.65800
Fe1736     Fe  0.86023761  0.08275541  0.07112765     1.73200
Fe1737     Fe  0.89586604  0.05038997  0.10737134     1.54400
O1738       O  0.88484147  0.03553765  0.16082977    -0.81100
O1739       O  0.89348625  0.08967572  0.03493365    -0.79400
O1740       O  0.83625516  0.00741352  0.16010316    -0.83600
O1741       O  0.83026784  0.49343388  0.06752319    -0.78400
O1742       O  0.91770986  0.09475657  0.12674273    -0.80200
O1743       O  0.83029679  0.05516446  0.03439116    -0.83000
C1744       C  0.85224011  0.49006465  0.06315255     0.97800
C1745       C  0.86081965  0.01658477  0.17557995     1.05200
O1746       O  0.85939695  0.05073077  0.09838950    -1.11900
O1747       O  0.82705976  0.08091642  0.10337062    -0.74400
O1748       O  0.81127140  0.04558561  0.14518382    -0.77900
O1749       O  0.87613755  0.00690600  0.08644010    -0.78600
C1750       C  0.81195124  0.06822713  0.13172122     0.96700
O1751       O  0.79792762  0.02274661  0.07239216    -0.76500
O1752       O  0.89009150  0.11282162  0.10558687    -0.81700
C1753       C  0.91197126  0.08118516  0.03177084     0.99300
C1754       C  0.91175766  0.11549979  0.12354346     1.05200
O1755       O  0.91342941  0.06472356  0.05575424    -0.77300
C1756       C  0.80402785  0.03709009  0.04302773     1.03500
Fe1757     Fe  0.98819303  0.29983758  0.10775345     1.65800
Fe1758     Fe  0.91945090  0.26314249  0.07217112     1.73200
Fe1759     Fe  0.94734545  0.33261339  0.10617918     1.54400
O1760       O  0.97170410  0.34231495  0.15527191    -0.81100
O1761       O  0.91353044  0.28782196  0.03167044    -0.79400
O1762       O  0.98479930  0.30852593  0.16059595    -0.83600
O1763       O  0.51879997  0.34368890  0.09981628    -0.78400
O1764       O  0.90679671  0.30700247  0.13347228    -0.80200
O1765       O  0.94758022  0.25893349  0.03788491    -0.83000
C1766       C  0.51543311  0.36091598  0.07893471     0.97800
C1767       C  0.98403038  0.33048185  0.17278726     1.05200
O1768       O  0.95113501  0.29811188  0.09588365    -1.11900
O1769       O  0.92191943  0.23335411  0.10876793    -0.74400
O1770       O  0.96968004  0.25595391  0.12112497    -0.77900
O1771       O  0.98556890  0.35961724  0.07605707    -0.78600
C1772       C  0.94451588  0.23297614  0.12076774     0.96700
O1773       O  0.99331971  0.29077151  0.05596345    -0.76500
O1774       O  0.88786289  0.26395938  0.10379277    -0.81700
C1775       C  0.91443188  0.31243109  0.03146598     0.99300
C1776       C  0.88535218  0.28132154  0.12539713     1.05200
O1777       O  0.92428796  0.32930887  0.05887739    -0.77300
C1778       C  0.97523148  0.27102205  0.03474080     1.03500
Fe1779     Fe  0.51851924  0.31677927  0.37203670     1.65800
Fe1780     Fe  0.57283637  0.33828700  0.43351488     1.73200
Fe1781     Fe  0.56462406  0.38830915  0.38767348     1.54400
O1782       O  0.54384739  0.38073271  0.33685701    -0.81100
O1783       O  0.57136269  0.36709848  0.47097302    -0.79400
O1784       O  0.53578343  0.33662213  0.32369444    -0.83600
O1785       O  0.99959553  0.33870174  0.37967790    -0.78400
O1786       O  0.60305762  0.39404870  0.36493815    -0.80200
O1787       O  0.53470535  0.30463458  0.45703114    -0.83000
C1788       C  0.00216432  0.35597085  0.40575575     0.97800
C1789       C  0.53740817  0.36029475  0.31415909     1.05200
O1790       O  0.55236417  0.34715151  0.39730473    -1.11900
O1791       O  0.57468650  0.30697043  0.40187097    -0.74400
O1792       O  0.53686362  0.29003248  0.36311582    -0.77900
O1793       O  0.52667602  0.37986067  0.41403114    -0.78600
C1794       C  0.55794709  0.28858701  0.37807980     0.96700
O1795       O  0.49862399  0.29358064  0.41697809    -0.76500
O1796       O  0.61252442  0.37055223  0.40969884    -0.81700
C1797       C  0.58250766  0.39456588  0.46720248     0.99300
C1798       C  0.62007058  0.38687719  0.38108458     1.05200
O1799       O  0.58774190  0.40548431  0.43564558    -0.77300
C1800       C  0.50816856  0.28921383  0.44620791     1.03500
C1801       C  0.00007750  0.34323867  0.20760934    -0.04700
C1802       C  0.52796471  0.34336445  0.21510094    -0.01900
C1803       C  0.54239685  0.35362285  0.24858314     0.03100
C1804       C  0.52982078  0.36232612  0.27596367    -0.04700
C1805       C  0.00188056  0.35987374  0.27027150    -0.01800
C1806       C  0.98763844  0.35141020  0.23605253     0.03100
C1807       C  0.53989475  0.33142169  0.18913149     0.37800
C1808       C  0.98743869  0.36506684  0.30052049     0.37800
C1809       C  0.95904543  0.34861229  0.23127249     0.36200
C1810       C  0.57000458  0.35458252  0.25550300     0.36200
N1811       N  0.93616250  0.34628175  0.22754558    -0.38600
N1812       N  0.59215727  0.35572579  0.26110391    -0.38600
N1813       N  0.97580777  0.36908522  0.32461998    -0.38100
N1814       N  0.54916092  0.32122384  0.16909931    -0.38100
C1815       C  0.93044625  0.14553962  0.13880784    -0.04700
C1816       C  0.91665092  0.15625279  0.16194995    -0.01900
C1817       C  0.92222593  0.18539939  0.15797965     0.03100
C1818       C  0.94259057  0.20444013  0.13182568    -0.04700
C1819       C  0.96138046  0.19563779  0.11547697    -0.01800
C1820       C  0.95485369  0.16609644  0.11833352     0.03100
C1821       C  0.89481968  0.13620375  0.18767022     0.37800
C1822       C  0.98736344  0.21672204  0.09567377     0.37800
C1823       C  0.97203338  0.15625929  0.09848477     0.36200
C1824       C  0.90760321  0.19582093  0.18156301     0.36200
N1825       N  0.98586617  0.14835756  0.08299355    -0.38600
N1826       N  0.89601600  0.20365976  0.20140854    -0.38600
N1827       N  0.00862277  0.23370886  0.08081213    -0.38100
N1828       N  0.87742563  0.12008300  0.20813740    -0.38100
C1829       C  0.65034879  0.39768051  0.36721472    -0.04700
C1830       C  0.65985644  0.37728926  0.36267292    -0.01900
C1831       C  0.68991641  0.38664867  0.36248088     0.03100
C1832       C  0.71116240  0.41693219  0.36220378    -0.04700
C1833       C  0.70160968  0.43769244  0.36197756    -0.01800
C1834       C  0.67122478  0.42804325  0.36512252     0.03100
C1835       C  0.63889965  0.34620960  0.35927444     0.37800
C1836       C  0.72301612  0.46891036  0.36327665     0.37800
C1837       C  0.66171762  0.44930280  0.36916795     0.36200
C1838       C  0.69849111  0.36474890  0.36768781     0.36200
N1839       N  0.65406886  0.46621895  0.37247416    -0.38600
N1840       N  0.70451560  0.34695965  0.37391988    -0.38600
N1841       N  0.74004407  0.49382711  0.36461926    -0.38100
N1842       N  0.62364026  0.32115952  0.35582124    -0.38100
C1843       C  0.86085998  0.00427080  0.21235845    -0.04700
C1844       C  0.84460067  0.47459731  0.20669068    -0.01900
C1845       C  0.83839839  0.46341519  0.24251690     0.03100
C1846       C  0.84853318  0.48292799  0.27226792    -0.04700
C1847       C  0.87333461  0.01123892  0.27729268    -0.01800
C1848       C  0.87651500  0.02293681  0.24178757     0.03100
C1849       C  0.83599401  0.45447328  0.17620392     0.37800
C1850       C  0.89035889  0.03033340  0.30699686     0.37800
C1851       C  0.89474939  0.05438373  0.23599721     0.36200
C1852       C  0.82076499  0.43197306  0.24868706     0.36200
N1853       N  0.90927668  0.07945891  0.23126570    -0.38600
N1854       N  0.80668138  0.40686705  0.25349195    -0.38600
N1855       N  0.90455098  0.04557471  0.33040703    -0.38100
N1856       N  0.82958875  0.43839121  0.15197099    -0.38100
C1857       C  0.85461943  0.27071902  0.13751329    -0.04700
C1858       C  0.83717093  0.27826387  0.11612336    -0.01900
C1859       C  0.80673088  0.25804637  0.11174435     0.03100
C1860       C  0.79400238  0.22962114  0.12713661    -0.04700
C1861       C  0.81007661  0.22446158  0.15383669    -0.01800
C1862       C  0.84026101  0.24525616  0.15931290     0.03100
C1863       C  0.85095273  0.30586137  0.09640316     0.37800
C1864       C  0.79545277  0.19805057  0.17581247     0.37800
C1865       C  0.85672928  0.24095468  0.18755948     0.36200
C1866       C  0.78870691  0.26636992  0.09107275     0.36200
N1867       N  0.86972885  0.23826501  0.21106307    -0.38600
N1868       N  0.77426895  0.27343132  0.07539894    -0.38600
N1869       N  0.78367169  0.17700184  0.19346024    -0.38100
N1870       N  0.86177526  0.32791244  0.08069401    -0.38100
C1871       C  0.75274236  0.10020032  0.13676020    -0.04700
C1872       C  0.78360546  0.11996248  0.13319373    -0.01900
C1873       C  0.80374871  0.11042746  0.13927321     0.03100
C1874       C  0.79375511  0.08058063  0.14636147    -0.04700
C1875       C  0.76407405  0.06250010  0.15731450    -0.01800
C1876       C  0.74339550  0.07204494  0.15178549     0.03100
C1877       C  0.79569552  0.14949870  0.11885905     0.37800
C1878       C  0.75475544  0.03410368  0.17351097     0.37800
C1879       C  0.71241912  0.05198979  0.15842183     0.36200
C1880       C  0.83490978  0.13107550  0.13370081     0.36200
N1881       N  0.68763487  0.03595554  0.16363474    -0.38600
N1882       N  0.85929199  0.14797419  0.12765246    -0.38600
N1883       N  0.74730916  0.01146558  0.18670668    -0.38100
N1884       N  0.80803477  0.17287540  0.10647153    -0.38100
C1885       C  0.73164220  0.28813390  0.34483020    -0.04700
C1886       C  0.76048520  0.29610840  0.35583194    -0.01900
C1887       C  0.78292658  0.32612452  0.35717513     0.03100
C1888       C  0.77706589  0.34819689  0.34591271    -0.04700
C1889       C  0.75030928  0.33941762  0.32740363    -0.01800
C1890       C  0.72718391  0.30964071  0.32823639     0.03100
C1891       C  0.76669173  0.27366819  0.36802396     0.37800
C1892       C  0.74612519  0.36149733  0.30945821     0.37800
C1893       C  0.69843899  0.30131366  0.31373483     0.36200
C1894       C  0.81129465  0.33423331  0.37250611     0.36200
N1895       N  0.67540588  0.29462535  0.30240287    -0.38600
N1896       N  0.83383780  0.33999980  0.38457272    -0.38600
N1897       N  0.74277688  0.37906071  0.29496019    -0.38100
N1898       N  0.77204908  0.25594184  0.37733064    -0.38100
C1899       C  0.65747437  0.14157347  0.20449781    -0.04700
C1900       C  0.64952354  0.11944813  0.23114554    -0.01900
C1901       C  0.64170904  0.12352913  0.26658417     0.03100
C1902       C  0.64276132  0.15003210  0.27575300    -0.04700
C1903       C  0.64919885  0.17135746  0.24874321    -0.01800
C1904       C  0.65533046  0.16666537  0.21300363     0.03100
C1905       C  0.65139096  0.09355540  0.22305979     0.37800
C1906       C  0.65223667  0.19942794  0.25854108     0.37800
C1907       C  0.65999604  0.18818847  0.18518707     0.36200
C1908       C  0.63410339  0.10119625  0.29421237     0.36200
N1909       N  0.66370845  0.20538684  0.16311446    -0.38600
N1910       N  0.62777566  0.08325920  0.31618866    -0.38600
N1911       N  0.65537861  0.22203593  0.26660054    -0.40500
N1912       N  0.65301532  0.07295262  0.21663727    -0.38100
C1913       C  0.58020431  0.22075678  0.36352516    -0.04700
C1914       C  0.56382158  0.22041974  0.39388228    -0.01900
C1915       C  0.55789454  0.24332051  0.39925010     0.03100
C1916       C  0.56217687  0.26306173  0.37062532    -0.04700
C1917       C  0.57230835  0.25899624  0.33673864    -0.01800
C1918       C  0.58321190  0.23929557  0.33401172     0.03100
C1919       C  0.55322713  0.19659816  0.41990859     0.37800
C1920       C  0.57346682  0.27643422  0.30568770     0.37800
C1921       C  0.59740771  0.23806406  0.30100035     0.36200
C1922       C  0.54958805  0.24756483  0.43534371     0.36200
N1923       N  0.60836517  0.23712995  0.27418841    -0.38600
N1924       N  0.54382680  0.25086519  0.46465948    -0.38600
N1925       N  0.57418220  0.29020292  0.28079622    -0.38100
N1926       N  0.54322246  0.17706062  0.44003927    -0.38100
C1927       C  0.59524812  0.15452706  0.98600844    -0.04700
C1928       C  0.59415443  0.16214485  0.02265531    -0.01900
C1929       C  0.60547285  0.15235470  0.05110525     0.03100
C1930       C  0.61851666  0.13500821  0.04347451    -0.04700
C1931       C  0.61589194  0.12440826  0.00739312    -0.01800
C1932       C  0.60408649  0.13372225  0.97915992     0.03100
C1933       C  0.58139783  0.18016377  0.03114048     0.37800
C1934       C  0.62653617  0.10493304  0.99798477     0.37800
C1935       C  0.60227457  0.12258475  0.94256672     0.36200
C1936       C  0.60363488  0.16030461  0.08832969     0.36200
N1937       N  0.60059868  0.11338999  0.91354464    -0.38600
N1938       N  0.60196765  0.16658471  0.11801083    -0.38600
N1939       N  0.63437218  0.08916681  0.98862477    -0.38100
N1940       N  0.57107917  0.19442850  0.03786776    -0.38100
C1941       C  0.97559259  0.11563319  0.94074210    -0.04700
C1942       C  0.94807196  0.11440973  0.93843031    -0.01900
C1943       C  0.92773364  0.10361933  0.96775321     0.03100
C1944       C  0.93301823  0.09137532  0.99937417    -0.04700
C1945       C  0.95955404  0.09041305  0.00032500    -0.01800
C1946       C  0.98019049  0.10189179  0.97128220     0.03100
C1947       C  0.94027140  0.12461605  0.90598182     0.37800
C1948       C  0.96750599  0.08006589  0.03253797     0.37800
C1949       C  0.00657501  0.09985883  0.97391225     0.36200
C1950       C  0.90297180  0.10839523  0.96622724     0.36200
N1951       N  0.52229712  0.09898860  0.96551430    -0.38600
N1952       N  0.88412886  0.11355880  0.96507173    -0.38600
N1953       N  0.97424811  0.07202862  0.05807441    -0.38100
N1954       N  0.93362854  0.13259123  0.88032115    -0.38100
C1955       C  0.53245475  0.23977012  0.98302127    -0.04700
C1956       C  0.50519762  0.22013140  0.99870839    -0.01900
C1957       C  0.97478081  0.22795350  0.00790157     0.03100
C1958       C  0.98743645  0.25885328  0.00910037    -0.04700
C1959       C  0.52623292  0.28096867  0.99809935    -0.01800
C1960       C  0.54338381  0.27021526  0.98332777     0.03100
C1961       C  0.98075828  0.18487948  0.00141402     0.37800
C1962       C  0.53666631  0.31219766  0.99645297     0.37800
C1963       C  0.57202050  0.29033620  0.96772887     0.36200
C1964       C  0.94486389  0.20809604  0.02025574     0.36200
N1965       N  0.59492424  0.30646035  0.95558563    -0.38600
N1966       N  0.92109580  0.19209985  0.03006961    -0.38600
N1967       N  0.54497877  0.33707981  0.99458006    -0.38100
N1968       N  0.97209001  0.16011507  0.00551034    -0.38100
C1969       C  0.99577786  0.14929932  0.71253447    -0.04700
C1970       C  0.98224383  0.15747310  0.73936302    -0.01900
C1971       C  0.48587330  0.14921747  0.76607130     0.03100
C1972       C  0.51482550  0.15548708  0.77413049    -0.04700
C1973       C  0.53213201  0.15411377  0.74552335    -0.01800
C1974       C  0.52120006  0.14829009  0.70935463     0.03100
C1975       C  0.95699659  0.16018561  0.72991664     0.37800
C1976       C  0.56154265  0.15970253  0.75285632     0.37800
C1977       C  0.53972678  0.14889651  0.67983685     0.36200
C1978       C  0.46650440  0.14828858  0.79464749     0.36200
N1979       N  0.55458944  0.14964428  0.65621114    -0.38600
N1980       N  0.45066608  0.14747142  0.81695234    -0.38600
N1981       N  0.58494907  0.16397695  0.75876340    -0.38100
N1982       N  0.93714010  0.16274652  0.72221680    -0.38100
C1983       C  0.53448487  0.15397530  0.54316753    -0.04700
C1984       C  0.55965954  0.18273818  0.54238233    -0.01900
C1985       C  0.58288410  0.19033575  0.51728468     0.03100
C1986       C  0.58215456  0.16909762  0.49285727    -0.04700
C1987       C  0.55885651  0.13928925  0.49758119    -0.01800
C1988       C  0.53489359  0.13212709  0.52146737     0.03100
C1989       C  0.56176962  0.20498951  0.56747212     0.37800
C1990       C  0.55890055  0.11550593  0.47787642     0.37800
C1991       C  0.50979232  0.10241639  0.52180630     0.36200
C1992       C  0.60729600  0.22046268  0.51685932     0.36200
N1993       N  0.97976592  0.07751596  0.52211455    -0.38600
N1994       N  0.62659673  0.24454431  0.51672157    -0.38600
N1995       N  0.55890064  0.09637690  0.46244702    -0.38100
N1996       N  0.56337751  0.22274378  0.58737714    -0.38100
C1997       C  0.96863709  0.21505324  0.50834792    -0.04700
C1998       C  0.96789595  0.24037072  0.51870998    -0.01900
C1999       C  0.98477945  0.26671965  0.49966282     0.03100
C2000       C  0.48768977  0.26269240  0.46599943    -0.04700
C2001       C  0.47848626  0.23487780  0.45000103    -0.01800
C2002       C  0.46399091  0.20945710  0.47145040     0.03100
C2003       C  0.94664723  0.23808767  0.54523552     0.37800
C2004       C  0.48463008  0.23227911  0.41216883     0.37800
C2005       C  0.45842729  0.18135205  0.45762307     0.36200
C2006       C  0.98805528  0.29398542  0.51338615     0.36200
N2007       N  0.45393749  0.15892933  0.44650073    -0.38600
N2008       N  0.99083976  0.31572477  0.52467404    -0.38600
N2009       N  0.48883175  0.22953185  0.38194540    -0.38100
N2010       N  0.92823245  0.23608326  0.56417597    -0.38100
C2011       C  0.88663067  0.02450330  0.44819645    -0.04700
C2012       C  0.88992613  0.05276909  0.44398216    -0.01900
C2013       C  0.90032512  0.07339258  0.47290721     0.03100
C2014       C  0.90775154  0.06634684  0.50696364    -0.04700
C2015       C  0.90644554  0.03879266  0.51034373    -0.01800
C2016       C  0.89629893  0.01830890  0.48116576     0.03100
C2017       C  0.88180566  0.06056127  0.40987579     0.37800
C2018       C  0.91363196  0.03026705  0.54465327     0.37800
C2019       C  0.89868214  0.49657526  0.46707822     0.36200
C2020       C  0.90313492  0.10192341  0.46726985     0.36200
N2021       N  0.89945938  0.47514605  0.46987717    -0.38600
N2022       N  0.90517096  0.12457457  0.46260377    -0.38600
N2023       N  0.91926222  0.02327510  0.57192183    -0.38100
N2024       N  0.87515308  0.06689705  0.38288156    -0.38100
C2025       C  0.58193261  0.29346198  0.86178254    -0.04700
C2026       C  0.61004954  0.31615898  0.85131446    -0.01900
C2027       C  0.61600604  0.34532254  0.84907808     0.03100
C2028       C  0.59554801  0.35289076  0.86196125    -0.04700
C2029       C  0.56672005  0.33020139  0.86989864    -0.01800
C2030       C  0.55963824  0.30042764  0.86874842     0.03100
C2031       C  0.63361910  0.31014051  0.84542061     0.37800
C2032       C  0.54488037  0.33759583  0.88093117     0.37800
C2033       C  0.53006462  0.27729748  0.87784922     0.36200
C2034       C  0.64352892  0.36791363  0.83391894     0.36200
N2035       N  0.50639164  0.25892505  0.88500280    -0.38600
N2036       N  0.66512566  0.38569725  0.82062841    -0.38600
N2037       N  0.52737449  0.34347561  0.88952578    -0.38100
N2038       N  0.65304637  0.30610780  0.84162597    -0.38100
C2039       C  0.65453436  0.03107492  0.93490327    -0.04700
C2040       C  0.68044880  0.05913167  0.93104094    -0.01900
C2041       C  0.69323648  0.07823574  0.96126991     0.03100
C2042       C  0.67900654  0.07137394  0.99564299    -0.04700
C2043       C  0.65216574  0.04396542  0.99906144    -0.01800
C2044       C  0.64009466  0.02434569  0.96921415     0.03100
C2045       C  0.69365912  0.06955109  0.89553950     0.37800
C2046       C  0.63594925  0.03561554  0.03315505     0.37800
C2047       C  0.61197489  0.99756536  0.97433482     0.36200
C2048       C  0.72195548  0.10443961  0.95682585     0.36200
N2049       N  0.58598551  0.49936144  0.95302283    -0.38600
N2050       N  0.74500897  0.12510361  0.95317833    -0.38600
N2051       N  0.62289864  0.02870864  0.06018454    -0.38100
N2052       N  0.70420458  0.07857493  0.86739313    -0.38100
C2053       C  0.73830301  0.50445147  0.96448231    -0.04700
C2054       C  0.72818095  0.02102595  0.01318862    -0.01900
C2055       C  0.75130671  0.02453689  0.03534639     0.03100
C2056       C  0.77965260  0.03432060  0.02000089    -0.04700
C2057       C  0.79107390  0.52639004  0.96903492    -0.01800
C2058       C  0.76554868  0.51169737  0.94837739     0.03100
C2059       C  0.69922850  0.01146153  0.02822779     0.37800
C2060       C  0.81822897  0.52885496  0.95602021     0.37800
C2061       C  0.76766665  0.50486005  0.91067862     0.36200
C2062       C  0.74433379  0.01504472  0.07277802     0.36200
N2063       N  0.77020351  0.50063190  0.88038959    -0.38600
N2064       N  0.73756785  0.00604334  0.10199028    -0.38600
N2065       N  0.83964506  0.53048992  0.94535522    -0.38100
N2066       N  0.67629839  0.00412789  0.04042670    -0.38100
C2067       C  0.58512106  0.41029972  0.99932375    -0.04700
C2068       C  0.59162602  0.40076115  0.03217575    -0.01900
C2069       C  0.56969975  0.38632076  0.05925654     0.03100
C2070       C  0.54089821  0.38208684  0.05483669    -0.04700
C2071       C  0.53601353  0.39548362  0.02420565    -0.01800
C2072       C  0.55756324  0.40898560  0.99666426     0.03100
C2073       C  0.62069046  0.40478512  0.03817126     0.37800
C2074       C  0.50838645  0.39486644  0.01950876     0.37800
C2075       C  0.55064948  0.42107836  0.96521974     0.36200
C2076       C  0.57725597  0.37523462  0.09098619     0.36200
N2077       N  0.54469607  0.43026139  0.94008037    -0.38600
N2078       N  0.58419269  0.36653551  0.11568845    -0.38600
N2079       N  0.97512184  0.37543036  0.99836494    -0.38100
N2080       N  0.64383977  0.40814129  0.04326054    -0.38100
C2081       C  0.67901721  0.09209674  0.49406893    -0.04700
C2082       C  0.66770172  0.11028634  0.50437314    -0.01900
C2083       C  0.65938823  0.12407743  0.47782771     0.03100
C2084       C  0.66176244  0.11965414  0.44034262    -0.04700
C2085       C  0.67400472  0.10227107  0.42994273    -0.01800
C2086       C  0.68235194  0.08834797  0.45665128     0.03100
C2087       C  0.66631055  0.11646156  0.54257449     0.37800
C2088       C  0.67913930  0.09971365  0.39179377     0.37800
C2089       C  0.69441701  0.07024223  0.44565275     0.36200
C2090       C  0.65105586  0.14513994  0.48941149     0.36200
N2091       N  0.70408456  0.05579952  0.43686481    -0.38600
N2092       N  0.64514681  0.16229709  0.49939174    -0.38600
N2093       N  0.68358476  0.09790830  0.36137239    -0.38100
N2094       N  0.66528472  0.12171617  0.57289696    -0.38100
C2095       C  0.79209244  0.05110905  0.63500864    -0.04700
C2096       C  0.80462156  0.03549346  0.61936946    -0.01900
C2097       C  0.83527554  0.04635210  0.62240786     0.03100
C2098       C  0.85348790  0.07255891  0.64183288    -0.04700
C2099       C  0.83966862  0.08427732  0.66349339    -0.01800
C2100       C  0.80917242  0.07385836  0.65973475     0.03100
C2101       C  0.78596030  0.00830920  0.60008763     0.37800
C2102       C  0.85717765  0.10785257  0.68867795     0.37800
C2103       C  0.79550473  0.08698333  0.68057702     0.36200
C2104       C  0.84822242  0.03162341  0.60349027     0.36200
N2105       N  0.78459286  0.09728647  0.69762087    -0.38600
N2106       N  0.85821704  0.01943916  0.58856184    -0.38600
N2107       N  0.87087860  0.12653979  0.70913186    -0.38100
N2108       N  0.77108806  0.98619342  0.58544893    -0.38100
C2109       C  0.64440977  0.48563825  0.78193698    -0.04700
C2110       C  0.67632279  0.01715236  0.77040115    -0.01900
C2111       C  0.67956970  0.03055924  0.73623522     0.03100
C2112       C  0.65904387  0.01541479  0.70860494    -0.04700
C2113       C  0.62885635  0.48238248  0.71906955    -0.01800
C2114       C  0.62352859  0.47054417  0.75445142     0.03100
C2115       C  0.69979742  0.03168329  0.79686572     0.37800
C2116       C  0.60800555  0.46676325  0.69011460     0.37800
C2117       C  0.59801650  0.44192852  0.76184608     0.36200
C2118       C  0.70462580  0.05949937  0.72879426     0.36200
N2119       N  0.57774361  0.41903802  0.76781106    -0.38600
N2120       N  0.72419027  0.08281038  0.72275861    -0.38600
N2121       N  0.59124342  0.45444985  0.66708588    -0.38100
N2122       N  0.71896091  0.04313737  0.81740656    -0.38100
C2123       C  0.59035990  0.41465055  0.49987518    -0.04700
C2124       C  0.59489510  0.40591961  0.53473740    -0.01900
C2125       C  0.60578749  0.42626087  0.56387671     0.03100
C2126       C  0.61220528  0.45551641  0.55901575    -0.04700
C2127       C  0.60351205  0.46286057  0.52636016    -0.01800
C2128       C  0.59417280  0.44333872  0.49640955     0.03100
C2129       C  0.59115599  0.37698942  0.54035908     0.37800
C2130       C  0.60507679  0.49099966  0.52290117     0.37800
C2131       C  0.59027480  0.45400563  0.46167225     0.36200
C2132       C  0.61169359  0.41750034  0.59881979     0.36200
N2133       N  0.58759660  0.46287976  0.43400816    -0.38600
N2134       N  0.61643551  0.41057033  0.62669733    -0.38600
N2135       N  0.60540756  0.51298297  0.51980837    -0.38100
N2136       N  0.58843193  0.35403808  0.54499328    -0.38100
C2137       C  0.76613090  0.47322427  0.48002004    -0.04700
C2138       C  0.73544332  0.45735180  0.48493803    -0.01900
C2139       C  0.72172711  0.47101161  0.50176266     0.03100
C2140       C  0.73848261  0.00082724  0.50961848    -0.04700
C2141       C  0.76917484  0.01303721  0.50893120    -0.01800
C2142       C  0.78075721  0.99570160  0.49785413     0.03100
C2143       C  0.71796577  0.42733513  0.47186580     0.37800
C2144       C  0.78887012  0.04304742  0.52086750     0.37800
C2145       C  0.81203704  0.00681721  0.50088823     0.36200
C2146       C  0.69028276  0.45450265  0.50852254     0.36200
N2147       N  0.83690692  0.01557542  0.50415000    -0.38600
N2148       N  0.66524132  0.44116787  0.51404121    -0.38600
N2149       N  0.80486823  0.06697217  0.53004506    -0.38100
N2150       N  0.70392635  0.40340917  0.46150778    -0.38100
C2151       C  0.88030124  0.33932244  0.93774585    -0.04700
C2152       C  0.89356489  0.35829020  0.96774334    -0.01900
C2153       C  0.90499167  0.34995840  0.99756006     0.03100
C2154       C  0.90365071  0.32215110  0.99834302    -0.04700
C2155       C  0.89178627  0.30394742  0.96697722    -0.01800
C2156       C  0.88080741  0.31269068  0.93708498     0.03100
C2157       C  0.89395578  0.38590565  0.96948977     0.37800
C2158       C  0.88959320  0.27543650  0.96526146     0.37800
C2159       C  0.86953224  0.29374498  0.90538645     0.36200
C2160       C  0.91738110  0.37041652  0.02776061     0.36200
N2161       N  0.86052817  0.27864329  0.88015667    -0.38600
N2162       N  0.92721288  0.38692846  0.05159818    -0.38600
N2163       N  0.88754605  0.25254919  0.96369445    -0.38100
N2164       N  0.89477339  0.40816284  0.97183887    -0.38100
C2165       C  0.73306403  0.22308599  0.00472801    -0.04700
C2166       C  0.71351572  0.23186665  0.99164269    -0.01900
C2167       C  0.72448662  0.25861622  0.97327391     0.03100
C2168       C  0.75500294  0.27737497  0.97059623    -0.04700
C2169       C  0.77452153  0.26976174  0.98596139    -0.01800
C2170       C  0.76379157  0.24183149  0.00063820     0.03100
C2171       C  0.68223202  0.21356709  0.99678741     0.37800
C2172       C  0.80560303  0.29132239  0.98816593     0.37800
C2173       C  0.78472882  0.23346328  0.01310143     0.36200
C2174       C  0.70452293  0.26646636  0.95627800     0.36200
N2175       N  0.80156911  0.22698279  0.02274650    -0.38600
N2176       N  0.68855680  0.27260158  0.94271019    -0.38600
N2177       N  0.83024427  0.30859377  0.99158319    -0.38100
N2178       N  0.65716335  0.19962818  0.00116747    -0.38100
C2179       C  0.71251270  0.26865167  0.83932653    -0.04700
C2180       C  0.70471268  0.24139322  0.85585340    -0.01900
C2181       C  0.67476242  0.21908734  0.85896691     0.03100
C2182       C  0.65255323  0.22317378  0.84372607    -0.04700
C2183       C  0.66110547  0.24764971  0.82055811    -0.01800
C2184       C  0.69094155  0.27070675  0.81904291     0.03100
C2185       C  0.72728843  0.23677341  0.87145047     0.37800
C2186       C  0.63870986  0.24975211  0.80021385     0.37800
C2187       C  0.69947572  0.29671140  0.79728776     0.36200
C2188       C  0.66668135  0.19331854  0.88100493     0.36200
N2189       N  0.70640154  0.31741539  0.77969071    -0.38600
N2190       N  0.66052452  0.17288733  0.89876788    -0.38600
N2191       N  0.62075639  0.25126796  0.78390829    -0.38100
N2192       N  0.74507612  0.23251327  0.88344736    -0.38100
C2193       C  0.78114074  0.42298991  0.85554038    -0.04700
C2194       C  0.77718142  0.43394389  0.88844978    -0.01900
C2195       C  0.75101874  0.43406384  0.89515631     0.03100
C2196       C  0.73241955  0.43150366  0.86588764    -0.04700
C2197       C  0.74071096  0.42808601  0.83037110    -0.01800
C2198       C  0.76345055  0.42135339  0.82572925     0.03100
C2199       C  0.80113588  0.44774468  0.91403983     0.37800
C2200       C  0.72580635  0.43089500  0.79894487     0.37800
C2201       C  0.76941721  0.41377329  0.79024503     0.36200
C2202       C  0.74382969  0.43708920  0.93239274     0.36200
N2203       N  0.77428380  0.40818386  0.76161944    -0.38600
N2204       N  0.73832244  0.43891110  0.96239134    -0.38600
N2205       N  0.71418019  0.43345796  0.77371173    -0.38100
N2206       N  0.82049142  0.46082282  0.93383131    -0.38100
C2207       C  0.83021546  0.42134826  0.98228364    -0.04700
C2208       C  0.81107803  0.41662040  0.01177399    -0.01900
C2209       C  0.81938284  0.43793720  0.03975729     0.03100
C2210       C  0.84705611  0.46461917  0.03904099    -0.04700
C2211       C  0.86696616  0.46845237  0.01089960    -0.01800
C2212       C  0.85849553  0.44743084  0.98250805     0.03100
C2213       C  0.78251491  0.38991887  0.01334565     0.37800
C2214       C  0.89560927  0.99411284  0.02349181     0.37800
C2215       C  0.87798759  0.45459274  0.95143529     0.36200
C2216       C  0.79895567  0.43230463  0.06934537     0.36200
N2217       N  0.89339466  0.46041213  0.92654554    -0.38600
N2218       N  0.78252354  0.42779768  0.09274187    -0.38600
N2219       N  0.91894908  0.01464866  0.02351467    -0.38100
N2220       N  0.75964394  0.36870133  0.01464096    -0.38100
C2221       C  0.86956286  0.38365336  0.54161957    -0.04700
C2222       C  0.87528405  0.38108822  0.50454012    -0.01900
C2223       C  0.86707577  0.39404528  0.47689865     0.03100
C2224       C  0.84932541  0.40622605  0.48502306    -0.04700
C2225       C  0.84406019  0.40961820  0.52194633    -0.01800
C2226       C  0.85494315  0.39924432  0.55006835     0.03100
C2227       C  0.88604361  0.36202495  0.49333693     0.37800
C2228       C  0.82831725  0.42467898  0.53106973     0.37800
C2229       C  0.85111123  0.40473503  0.58772075     0.36200
C2230       C  0.87653641  0.39407998  0.43977372     0.36200
N2231       N  0.84827027  0.40937337  0.61773517    -0.38600
N2232       N  0.88480752  0.39480881  0.41044088    -0.38600
N2233       N  0.81582965  0.43678595  0.53834805    -0.38100
N2234       N  0.89340829  0.34646547  0.48166307    -0.38100
C2235       C  0.79133718  0.27220448  0.50243536    -0.04700
C2236       C  0.77295388  0.28482880  0.50320691    -0.01900
C2237       C  0.74540059  0.27053398  0.48576564     0.03100
C2238       C  0.73495222  0.24260134  0.47016700    -0.04700
C2239       C  0.75294776  0.22990066  0.47016668    -0.01800
C2240       C  0.78198090  0.24610096  0.48246295     0.03100
C2241       C  0.78202636  0.31273316  0.52102406     0.37800
C2242       C  0.74176241  0.20000293  0.45740809     0.37800
C2243       C  0.80261418  0.23706402  0.47133455     0.36200
C2244       C  0.72853377  0.28526477  0.48244901     0.36200
N2245       N  0.81896280  0.23012280  0.46109734    -0.38600
N2246       N  0.71528522  0.29717863  0.47955684    -0.38600
N2247       N  0.73321232  0.17613572  0.44781183    -0.38100
N2248       N  0.78895246  0.33484541  0.53531247    -0.38100
C2249       C  0.78680754  0.20833928  0.60479182    -0.04700
C2250       C  0.78846195  0.19052158  0.57724029    -0.01900
C2251       C  0.76770310  0.16037787  0.57547353     0.03100
C2252       C  0.74598431  0.14653406  0.60292194    -0.04700
C2253       C  0.74323666  0.16431587  0.62956721    -0.01800
C2254       C  0.76331820  0.19529613  0.63010035     0.03100
C2255       C  0.81246872  0.20272439  0.55104335     0.37800
C2256       C  0.72074851  0.15062126  0.65723935     0.37800
C2257       C  0.76082668  0.21336104  0.65783017     0.36200
C2258       C  0.76949540  0.14371461  0.54504654     0.36200
N2259       N  0.75879391  0.22779068  0.67999234    -0.38600
N2260       N  0.77192135  0.13134843  0.52054404    -0.38600
N2261       N  0.70273794  0.13953578  0.67931297    -0.38100
N2262       N  0.83196304  0.21190388  0.53082556    -0.38100
C2263       C  0.85155245  0.35672130  0.77386935    -0.04700
C2264       C  0.87629305  0.35380996  0.76697739    -0.01900
C2265       C  0.88208599  0.34806199  0.73139483     0.03100
C2266       C  0.86257020  0.34424502  0.70286664    -0.04700
C2267       C  0.83872247  0.34883430  0.70952396    -0.01800
C2268       C  0.83311931  0.35478561  0.74499910     0.03100
C2269       C  0.89464332  0.35481243  0.79696158     0.37800
C2270       C  0.81958450  0.34702715  0.68000030     0.37800
C2271       C  0.80688888  0.35632028  0.75241823     0.36200
C2272       C  0.90706831  0.34430492  0.72460696     0.36200
N2273       N  0.78576728  0.35706396  0.75860035    -0.38600
N2274       N  0.92702313  0.34137349  0.71901403    -0.38600
N2275       N  0.80422381  0.34559878  0.65661505    -0.38100
N2276       N  0.90907257  0.35531644  0.82097398    -0.38100
C2277       C  0.92270628  0.26712872  0.64130974    -0.04700
C2278       C  0.95208372  0.27375515  0.63784663    -0.01900
C2279       C  0.95881114  0.25084462  0.63944263     0.03100
C2280       C  0.93570934  0.22091530  0.64101458    -0.04700
C2281       C  0.90691293  0.21504431  0.64856208    -0.01800
C2282       C  0.90115315  0.23833287  0.65148841     0.03100
C2283       C  0.97484795  0.30360757  0.62939154     0.37800
C2284       C  0.88240721  0.18510371  0.64953031     0.37800
C2285       C  0.87224997  0.23242813  0.66250113     0.36200
C2286       C  0.98905307  0.25801066  0.63505579     0.36200
N2287       N  0.84935829  0.22765196  0.67217444    -0.38600
N2288       N  0.01325127  0.26383614  0.63181366    -0.38600
N2289       N  0.86224901  0.16151527  0.64912555    -0.38100
N2290       N  0.99305756  0.32743250  0.62260819    -0.38100
C2291       C  0.93929933  0.32887860  0.49485293    -0.04700
C2292       C  0.93687793  0.30822345  0.46846753    -0.01900
C2293       C  0.95496337  0.31743475  0.43713995     0.03100
C2294       C  0.97734743  0.34738423  0.43259939    -0.04700
C2295       C  0.97860014  0.36821861  0.45819567    -0.01800
C2296       C  0.96001090  0.35902573  0.48906772     0.03100
C2297       C  0.91708539  0.27697157  0.47456005     0.37800
C2298       C  0.50623972  0.39898447  0.46729368     0.37800
C2299       C  0.96213267  0.38102889  0.51459584     0.36200
C2300       C  0.95020235  0.29545990  0.41004756     0.36200
N2301       N  0.96399295  0.39865892  0.53486798    -0.38600
N2302       N  0.94599898  0.27767640  0.38863862    -0.38600
N2303       N  0.52420072  0.42361661  0.46714775    -0.38100
N2304       N  0.90152015  0.25205569  0.47951394    -0.38100
Fe2305     Fe  0.83091027  0.79838380  0.61224471     1.65800
Fe2306     Fe  0.90502252  0.83320252  0.61084206     1.73200
Fe2307     Fe  0.86555940  0.76934553  0.56832169     1.54400
O2308       O  0.84004541  0.73926311  0.60735139    -0.81100
O2309       O  0.92667948  0.83086047  0.56350829    -0.79400
O2310       O  0.80686046  0.75197405  0.61870574    -0.83600
O2311       O  0.81661560  0.79373500  0.56049182    -0.78400
O2312       O  0.90207704  0.77250431  0.59349101    -0.80200
O2313       O  0.89435424  0.86025830  0.58231056    -0.83000
C2314       C  0.81200665  0.77285247  0.53968769     0.97800
C2315       C  0.81407838  0.73227989  0.61634533     1.05200
O2316       O  0.86704362  0.80019706  0.59728457    -1.11900
O2317       O  0.88893575  0.84105002  0.65936922    -0.74400
O2318       O  0.84334677  0.80327601  0.66543944    -0.77900
O2319       O  0.82805730  0.76129883  0.54040609    -0.78600
C2320       C  0.86527507  0.82641375  0.67767107     0.96700
O2321       O  0.84952485  0.84391860  0.60457073    -0.76500
O2322       O  0.91532724  0.80515770  0.63855156    -0.81700
C2323       C  0.91759982  0.81927624  0.53216349     0.99300
C2324       C  0.91420015  0.78265949  0.62408808     1.05200
O2325       O  0.89124803  0.79845301  0.52817296    -0.77300
C2326       C  0.87069638  0.86118679  0.58365041     1.03500
Fe2327     Fe  0.79977029  0.81657543  0.87527578     1.65800
Fe2328     Fe  0.84146965  0.89026705  0.88608847     1.73200
Fe2329     Fe  0.77039974  0.85397279  0.91207009     1.54400
O2330       O  0.73939985  0.81733949  0.88214731    -0.81100
O2331       O  0.84170637  0.90033870  0.94033096    -0.79400
O2332       O  0.76419383  0.80648693  0.84245058    -0.83600
O2333       O  0.77233622  0.79458830  0.91725330    -0.78400
O2334       O  0.77164639  0.88125782  0.87192515    -0.80200
O2335       O  0.86631111  0.87019504  0.90228695    -0.83000
C2336       C  0.76636454  0.80205607  0.94719649     0.97800
C2337       C  0.74008037  0.80205964  0.85572146     1.05200
O2338       O  0.80400266  0.85377628  0.89057119    -1.11900
O2339       O  0.84520080  0.88260558  0.83107786    -0.74400
O2340       O  0.82739421  0.83412420  0.83176641    -0.77900
O2341       O  0.76835885  0.82666530  0.95285325    -0.78600
C2342       C  0.84146546  0.85900411  0.81653688     0.96700
O2343       O  0.83364367  0.82253826  0.90801709    -0.76500
O2344       O  0.81969204  0.91457638  0.87295344    -0.81700
C2345       C  0.82232124  0.90284519  0.95759785     0.99300
C2346       C  0.79261934  0.90746478  0.86794701     1.05200
O2347       O  0.79573142  0.88996347  0.94657338    -0.77300
C2348       C  0.85903226  0.84435780  0.91387417     1.03500
Fe2349     Fe  0.69713047  0.50168142  0.61330885     1.65800
Fe2350     Fe  0.66734911  0.54564267  0.60348898     1.73200
Fe2351     Fe  0.73373087  0.56570439  0.57062266     1.54400
O2352       O  0.76226167  0.55490465  0.59629590    -0.81100
O2353       O  0.66468567  0.55201914  0.54956226    -0.79400
O2354       O  0.73768697  0.52330925  0.64050561    -0.83600
O2355       O  0.71811708  0.49924801  0.56789290    -0.78400
O2356       O  0.73948937  0.59216596  0.61339885    -0.80200
O2357       O  0.63435397  0.50153684  0.59265972    -0.83000
C2358       C  0.72632235  0.51250541  0.53756492     0.97800
C2359       C  0.76172580  0.54031292  0.62401512     1.05200
O2360       O  0.69899688  0.53716850  0.59580377    -1.11900
O2361       O  0.66612997  0.53785323  0.65829660    -0.74400
O2362       O  0.67479899  0.50041908  0.65974925    -0.77900
O2363       O  0.72752803  0.53665533  0.53049335    -0.78600
C2364       C  0.66566451  0.51622053  0.67408812     0.96700
O2365       O  0.66071476  0.98277460  0.58269422    -0.76500
O2366       O  0.69786722  0.59236910  0.61128840    -0.81700
C2367       C  0.68465139  0.57202285  0.53063762     0.99300
C2368       C  0.72604755  0.60613197  0.61461383     1.05200
O2369       O  0.71170731  0.58222291  0.53845553    -0.77300
C2370       C  0.63839033  0.98529967  0.57727218     1.03500
Fe2371     Fe  0.68806503  0.99244446  0.87418322     1.65800
Fe2372     Fe  0.61616401  0.94380721  0.88501284     1.73200
Fe2373     Fe  0.66517706  0.93819028  0.93695972     1.54400
O2374       O  0.69972621  0.93886674  0.90839055    -0.81100
O2375       O  0.59677529  0.92134597  0.93282437    -0.79400
O2376       O  0.71686608  0.97636993  0.86923645    -0.83600
O2377       O  0.70702297  0.01309097  0.92100315    -0.78400
O2378       O  0.63618653  0.89782173  0.91280265    -0.80200
O2379       O  0.62235123  0.98224114  0.90949530    -0.83000
C2380       C  0.70910926  0.00409452  0.95191433     0.97800
C2381       C  0.71823283  0.95540027  0.88441505     1.05200
O2382       O  0.65700983  0.95759844  0.89831704    -1.11900
O2383       O  0.62642573  0.96462879  0.83354510    -0.74400
O2384       O  0.67164182  0.97458566  0.82468886    -0.77900
O2385       O  0.69471241  0.97723020  0.96168887    -0.78600
C2386       C  0.64911416  0.97452850  0.81344478     0.96700
O2387       O  0.66836297  0.50834486  0.88421615    -0.76500
O2388       O  0.61246763  0.90448319  0.86578062    -0.81700
C2389       C  0.60540476  0.92452284  0.96546221     0.99300
C2390       C  0.62008219  0.88852069  0.88416995     1.05200
O2391       O  0.63267158  0.93604982  0.97193709    -0.77300
C2392       C  0.65244555  0.50602787  0.91174513     1.03500
Fe2393     Fe  0.98378523  0.67904271  0.60193376     1.65800
Fe2394     Fe  0.94901372  0.60485991  0.59987292     1.73200
Fe2395     Fe  0.91446447  0.64020722  0.56989700     1.54400
O2396       O  0.92134553  0.67688525  0.60096886    -0.81100
O2397       O  0.93662182  0.59059621  0.54756087    -0.79400
O2398       O  0.96065744  0.69057006  0.63630894    -0.83600
O2399       O  0.97631296  0.70055203  0.56032157    -0.78400
O2400       O  0.88757267  0.61313978  0.61012366    -0.80200
O2401       O  0.99320091  0.62339410  0.58080841    -0.83000
C2402       C  0.95989316  0.69301750  0.53257652     0.97800
C2403       C  0.93921123  0.69325625  0.62578804     1.05200
O2404       O  0.94888659  0.64117048  0.59091201    -1.11900
O2405       O  0.96280811  0.61678654  0.65327216    -0.74400
O2406       O  0.99714646  0.66382207  0.64560952    -0.77900
O2407       O  0.93826079  0.66739164  0.52807268    -0.78600
C2408       C  0.98493916  0.64052892  0.66452396     0.96700
O2409       O  0.50941027  0.67059229  0.57590016    -0.76500
O2410       O  0.90367143  0.58164101  0.61740152    -0.81700
C2411       C  0.91676539  0.58962940  0.52732147     0.99300
C2412       C  0.88361239  0.58858144  0.62082060     1.05200
O2413       O  0.90415878  0.60427614  0.53494219    -0.77300
C2414       C  0.51150879  0.64765978  0.57486894     1.03500
Fe2415     Fe  0.52902632  0.69826351  0.88680430     1.65800
Fe2416     Fe  0.56353911  0.65945352  0.88438194     1.73200
Fe2417     Fe  0.59290050  0.72267215  0.93272306     1.54400
O2418       O  0.59818892  0.75801588  0.90228216    -0.81100
O2419       O  0.58533555  0.65687318  0.92961382    -0.79400
O2420       O  0.55482836  0.74341773  0.87668745    -0.83600
O2421       O  0.52168029  0.70648943  0.93781208    -0.78400
O2422       O  0.62495168  0.72165855  0.90147631    -0.80200
O2423       O  0.52457627  0.63234942  0.91219669    -0.83000
C2424       C  0.53833763  0.72105388  0.96373519     0.97800
C2425       C  0.58080161  0.76368289  0.88481468     1.05200
O2426       O  0.56197676  0.69387046  0.90120386    -1.11900
O2427       O  0.54055057  0.65370664  0.83613854    -0.74400
O2428       O  0.53351942  0.69146178  0.83333987    -0.77900
O2429       O  0.56500660  0.72799574  0.96617084    -0.78600
C2430       C  0.53231877  0.66917411  0.81914257     0.96700
O2431       O  0.99755275  0.65544103  0.90019097    -0.76500
O2432       O  0.60333401  0.68752214  0.85778784    -0.81700
C2433       C  0.58931891  0.66707056  0.96158003     0.99300
C2434       C  0.62548368  0.71062807  0.87090474     1.05200
O2435       O  0.58955808  0.69072551  0.96808713    -0.77300
C2436       C  0.99812811  0.63235868  0.90889210     1.03500
Fe2437     Fe  0.68943402  0.69072934  0.38492217     1.65800
Fe2438     Fe  0.65639091  0.72345300  0.42571850     1.73200
Fe2439     Fe  0.61464815  0.65496756  0.39133906     1.54400
O2440       O  0.62417763  0.65211983  0.33686803    -0.81100
O2441       O  0.61887822  0.69912821  0.45865755    -0.79400
O2442       O  0.67204786  0.66722766  0.33787123    -0.83600
O2443       O  0.67802222  0.65351948  0.41311293    -0.78400
O2444       O  0.59623072  0.68193153  0.37699179    -0.80200
O2445       O  0.68092101  0.71983412  0.46605708    -0.83000
C2446       C  0.65417793  0.62993844  0.41924119     0.97800
C2447       C  0.64732561  0.65497212  0.32203578     1.05200
O2448       O  0.65328078  0.68965542  0.40000128    -1.11900
O2449       O  0.69518872  0.75380970  0.39839611    -0.74400
O2450       O  0.70550182  0.72982604  0.35673577    -0.77900
O2451       O  0.62919561  0.62582328  0.40846549    -0.78600
C2452       C  0.71072162  0.75358697  0.37193192     0.96700
O2453       O  0.71131295  0.71324120  0.43041680    -0.76500
O2454       O  0.63200836  0.72861472  0.38639868    -0.81700
C2455       C  0.60142837  0.67190903  0.46522204     0.99300
C2456       C  0.60619281  0.70989404  0.37616594     1.05200
O2457       O  0.60066489  0.65248630  0.44437849    -0.77300
C2458       C  0.70476667  0.72022805  0.46041127     1.03500
Fe2459     Fe  0.70274027  0.68096586  0.10958043     1.65800
Fe2460     Fe  0.74073635  0.65419867  0.06433014     1.73200
Fe2461     Fe  0.67651370  0.60679780  0.10663306     1.54400
O2462       O  0.66589981  0.61767933  0.15678650    -0.81100
O2463       O  0.71565842  0.62117246  0.02634132    -0.79400
O2464       O  0.69045803  0.66623313  0.16111051    -0.83600
O2465       O  0.65982924  0.66052497  0.09092357    -0.78400
O2466       O  0.70757770  0.59915146  0.13251280    -0.80200
O2467       O  0.73916741  0.68387600  0.02984904    -0.83000
C2468       C  0.64301877  0.63608273  0.07535392     0.97800
C2469       C  0.67366265  0.64119333  0.17437924     1.05200
O2470       O  0.70696678  0.64747862  0.09387060    -1.11900
O2471       O  0.77034529  0.68908659  0.09779856    -0.74400
O2472       O  0.74537524  0.70590534  0.12859529    -0.77900
O2473       O  0.64581492  0.61352540  0.07900990    -0.78600
C2474       C  0.76926620  0.70720813  0.11993559     0.96700
O2475       O  0.71517619  0.70151190  0.06078981    -0.76500
O2476       O  0.74614783  0.62530634  0.09580672    -0.81700
C2477       C  0.69362209  0.59526841  0.02957186     0.99300
C2478       C  0.73383422  0.60750859  0.12206825     1.05200
O2479       O  0.67964311  0.58681004  0.05933474    -0.77300
C2480       C  0.72964013  0.70140844  0.03356096     1.03500
Fe2481     Fe  0.80620683  0.97084895  0.38520078     1.65800
Fe2482     Fe  0.77839589  0.90602876  0.43010526     1.73200
Fe2483     Fe  0.84641956  0.93708034  0.39044651     1.54400
O2484       O  0.85030856  0.95202111  0.33676781    -0.81100
O2485       O  0.80496239  0.89924615  0.46566364    -0.79400
O2486       O  0.82956355  0.97946018  0.33769606    -0.83600
O2487       O  0.84280626  0.50472645  0.39996691    -0.78400
O2488       O  0.82155872  0.89287139  0.37110120    -0.80200
O2489       O  0.77744686  0.93409935  0.46746416    -0.83000
C2490       C  0.86663881  0.50557217  0.40799586     0.97800
C2491       C  0.84441207  0.97012514  0.32179628     1.05200
O2492       O  0.81033198  0.93766135  0.40139392    -1.11900
O2493       O  0.74646721  0.90848163  0.39999999    -0.74400
O2494       O  0.76750006  0.94388452  0.35806304    -0.77900
O2495       O  0.87261661  0.98021563  0.41232397    -0.78600
C2496       C  0.74486642  0.92309543  0.37345039     0.96700
O2497       O  0.78225359  0.96882313  0.42908405    -0.76500
O2498       O  0.77647985  0.87528930  0.39524769    -0.81700
C2499       C  0.83216977  0.90800942  0.46688983     0.99300
C2500       C  0.79461453  0.87235768  0.37570725     1.05200
O2501       O  0.84929282  0.92291977  0.44134590    -0.77300
C2502       C  0.77477275  0.95584031  0.45926347     1.03500
Fe2503     Fe  0.82327667  0.51989630  0.10132949     1.65800
Fe2504     Fe  0.86391468  0.58678170  0.06477363     1.73200
Fe2505     Fe  0.89743509  0.55188932  0.09837228     1.54400
O2506       O  0.88534064  0.53779264  0.15119033    -0.81100
O2507       O  0.89981159  0.59667749  0.03150228    -0.79400
O2508       O  0.83745928  0.50632010  0.14553592    -0.83600
O2509       O  0.82769972  0.98995376  0.08286254    -0.78400
O2510       O  0.91990702  0.59679308  0.11831326    -0.80200
O2511       O  0.83784205  0.56169472  0.02406709    -0.83000
C2512       C  0.85018851  0.98800423  0.07509714     0.97800
C2513       C  0.86119568  0.51710546  0.16344934     1.05200
O2514       O  0.86192250  0.55306568  0.08878693    -1.11900
O2515       O  0.82781323  0.58151745  0.09428321    -0.74400
O2516       O  0.81384552  0.54535078  0.13466910    -0.77900
O2517       O  0.87757557  0.50783673  0.07735518    -0.78600
C2518       C  0.81292471  0.56730316  0.12215715     0.96700
O2519       O  0.80273913  0.52814090  0.05940852    -0.76500
O2520       O  0.89001386  0.61388172  0.10401315    -0.81700
C2521       C  0.91443545  0.58401599  0.02557657     0.99300
C2522       C  0.91252608  0.61669724  0.11983455     1.05200
O2523       O  0.91319808  0.56464982  0.04682376    -0.77300
C2524       C  0.81142047  0.54276110  0.03016727     1.03500
Fe2525     Fe  0.99024748  0.80099888  0.10744082     1.65800
Fe2526     Fe  0.92288717  0.76414535  0.06891145     1.73200
Fe2527     Fe  0.94965339  0.83353586  0.10167594     1.54400
O2528       O  0.97461998  0.84533941  0.14985136    -0.81100
O2529       O  0.91887095  0.78881322  0.02629839    -0.79400
O2530       O  0.98430037  0.80960358  0.15937195    -0.83600
O2531       O  0.51816986  0.84662150  0.09746296    -0.78400
O2532       O  0.91040930  0.80840558  0.13047922    -0.80200
O2533       O  0.95229079  0.75844759  0.03788916    -0.83000
C2534       C  0.51315055  0.86267742  0.07629701     0.97800
C2535       C  0.98506686  0.83283415  0.16941031     1.05200
O2536       O  0.95380345  0.79912961  0.09289253    -1.11900
O2537       O  0.92373792  0.73488850  0.10781528    -0.74400
O2538       O  0.97129360  0.75704105  0.12114297    -0.77900
O2539       O  0.98731375  0.85934630  0.07081321    -0.78600
C2540       C  0.94597126  0.73421417  0.12065837     0.96700
O2541       O  0.99741524  0.79171274  0.05658681    -0.76500
O2542       O  0.89065061  0.76637842  0.09836304    -0.81700
C2543       C  0.91740506  0.81225715  0.02692038     0.99300
C2544       C  0.88865541  0.78336687  0.12132000     1.05200
O2545       O  0.92516691  0.82827662  0.05513826    -0.77300
C2546       C  0.98014901  0.77056727  0.03634218     1.03500
Fe2547     Fe  0.52575597  0.81820174  0.37057326     1.65800
Fe2548     Fe  0.57932536  0.84279795  0.43389602     1.73200
Fe2549     Fe  0.56813842  0.89031013  0.38700776     1.54400
O2550       O  0.54733988  0.88180913  0.33629874    -0.81100
O2551       O  0.57588506  0.87089502  0.47078956    -0.79400
O2552       O  0.54201655  0.83894639  0.32212774    -0.83600
O2553       O  0.99622696  0.84109422  0.38095770    -0.78400
O2554       O  0.60780317  0.89831364  0.36508888    -0.80200
O2555       O  0.54202849  0.80890704  0.45770097    -0.83000
C2556       C  0.00011065  0.85886872  0.40705401     0.97800
C2557       C  0.54133031  0.86164400  0.31340824     1.05200
O2558       O  0.55816988  0.84983338  0.39666653    -1.11900
O2559       O  0.58291500  0.81184802  0.40321823    -0.74400
O2560       O  0.54683894  0.79412018  0.36181319    -0.77900
O2561       O  0.52905232  0.87924096  0.41250128    -0.78600
C2562       C  0.56739601  0.79316327  0.37889883     0.96700
O2563       O  0.50701499  0.79379041  0.41521908    -0.76500
O2564       O  0.61839629  0.87586944  0.41020069    -0.81700
C2565       C  0.58508186  0.89797984  0.46666282     0.99300
C2566       C  0.62539314  0.89198419  0.38149383     1.05200
O2567       O  0.59041602  0.90866989  0.43502873    -0.77300
C2568       C  0.51627722  0.79146285  0.44580684     1.03500
C2569       C  0.00064260  0.84624168  0.20395819    -0.04700
C2570       C  0.53118534  0.84979958  0.21291052    -0.01900
C2571       C  0.54568754  0.85941398  0.24651084     0.03100
C2572       C  0.53107977  0.86282761  0.27636964    -0.04700
C2573       C  0.00181454  0.86491297  0.26515681    -0.01800
C2574       C  0.98856670  0.85647089  0.23045088     0.03100
C2575       C  0.54540673  0.84292582  0.18389774     0.37800
C2576       C  0.98817120  0.87325578  0.29328179     0.37800
C2577       C  0.96134298  0.85605828  0.22310597     0.36200
C2578       C  0.57562436  0.86543689  0.25075237     0.36200
N2579       N  0.93958001  0.85564047  0.21717122    -0.38600
N2580       N  0.59962760  0.87067486  0.25416032    -0.38600
N2581       N  0.97727617  0.87998697  0.31562809    -0.38100
N2582       N  0.55657799  0.83684503  0.16119906    -0.38100
C2583       C  0.93017029  0.64601097  0.13812257    -0.04700
C2584       C  0.91438836  0.65600934  0.15901062    -0.01900
C2585       C  0.92003884  0.68522479  0.15505408     0.03100
C2586       C  0.94333715  0.70548093  0.13274033    -0.04700
C2587       C  0.96385253  0.69729949  0.12043565    -0.01800
C2588       C  0.95680655  0.66748476  0.12225066     0.03100
C2589       C  0.89046828  0.63515153  0.18191728     0.37800
C2590       C  0.99176381  0.71907978  0.10480991     0.37800
C2591       C  0.97616373  0.65859251  0.10620488     0.36200
C2592       C  0.90179084  0.69424288  0.17381766     0.36200
N2593       N  0.99188600  0.65164514  0.09378650    -0.38600
N2594       N  0.88694863  0.70104602  0.18896257    -0.38600
N2595       N  0.01430173  0.73651916  0.09294459    -0.38100
N2596       N  0.87129585  0.61847728  0.20008651    -0.38100
C2597       C  0.65552111  0.90273303  0.36736973    -0.04700
C2598       C  0.66298181  0.88175138  0.35655178    -0.01900
C2599       C  0.69233942  0.88841109  0.35710299     0.03100
C2600       C  0.71512995  0.91740636  0.36389180    -0.04700
C2601       C  0.70792979  0.93958451  0.37012842    -0.01800
C2602       C  0.67810935  0.93204127  0.37284557     0.03100
C2603       C  0.64030376  0.85276181  0.34569555     0.37800
C2604       C  0.73093296  0.96937708  0.37850336     0.37800
C2605       C  0.67069289  0.95377905  0.38427276     0.36200
C2606       C  0.69833068  0.86449337  0.35506182     0.36200
N2607       N  0.66474312  0.97107797  0.39356733    -0.38600
N2608       N  0.70191366  0.84461332  0.35487566    -0.38600
N2609       N  0.74917229  0.99313085  0.38546527    -0.38100
N2610       N  0.62296965  0.82960603  0.33584092    -0.38100
C2611       C  0.85993977  0.50534522  0.20051372    -0.04700
C2612       C  0.84399491  0.97349673  0.21861618    -0.01900
C2613       C  0.84085013  0.96194629  0.25414758     0.03100
C2614       C  0.85421548  0.98089101  0.28392059    -0.04700
C2615       C  0.86667896  0.51341461  0.26600839    -0.01800
C2616       C  0.87198493  0.52468165  0.23033856     0.03100
C2617       C  0.82999064  0.95348210  0.18846840     0.37800
C2618       C  0.88051181  0.53321512  0.29636492     0.37800
C2619       C  0.88887985  0.55625110  0.22461370     0.36200
C2620       C  0.82354403  0.93050112  0.26015325     0.36200
N2621       N  0.90245263  0.58142098  0.22008661    -0.38600
N2622       N  0.81018279  0.90536052  0.26478237    -0.38600
N2623       N  0.89216336  0.54909232  0.32035073    -0.38100
N2624       N  0.81882609  0.93726229  0.16461871    -0.38100
C2625       C  0.85843644  0.77353717  0.13429151    -0.04700
C2626       C  0.84004563  0.77903331  0.11188856    -0.01900
C2627       C  0.80940409  0.75939050  0.11210775     0.03100
C2628       C  0.79754310  0.73310518  0.13230585    -0.04700
C2629       C  0.81474100  0.73138701  0.16052969    -0.01800
C2630       C  0.84543389  0.75174193  0.16143147     0.03100
C2631       C  0.85285694  0.80370303  0.08692578     0.37800
C2632       C  0.80079819  0.70946792  0.18880283     0.37800
C2633       C  0.86373632  0.75062224  0.18993385     0.36200
C2634       C  0.78994304  0.76654614  0.09276996     0.36200
N2635       N  0.87845950  0.75048371  0.21316623    -0.38600
N2636       N  0.77424761  0.77276129  0.07862936    -0.38600
N2637       N  0.78969938  0.69199859  0.21147960    -0.38100
N2638       N  0.86317844  0.82347014  0.06710876    -0.38100
C2639       C  0.75236024  0.59683368  0.13940318    -0.04700
C2640       C  0.78302320  0.61690361  0.14161555    -0.01900
C2641       C  0.80306839  0.60696732  0.13956836     0.03100
C2642       C  0.79298496  0.57663323  0.13814336    -0.04700
C2643       C  0.76249486  0.55632254  0.14297281    -0.01800
C2644       C  0.74211375  0.56646044  0.14322040     0.03100
C2645       C  0.79488540  0.64830176  0.13910476     0.37800
C2646       C  0.75165704  0.52499593  0.14191551     0.37800
C2647       C  0.71078192  0.54550623  0.14267824     0.36200
C2648       C  0.83361014  0.62841249  0.13165067     0.36200
N2649       N  0.68576653  0.52874697  0.14215897    -0.38600
N2650       N  0.85709923  0.64595441  0.12276016    -0.38600
N2651       N  0.74293881  0.49998027  0.14078921    -0.38100
N2652       N  0.80666202  0.67343283  0.13504973    -0.38100
C2653       C  0.73731640  0.78202453  0.36141458    -0.04700
C2654       C  0.76421985  0.79147695  0.37983697    -0.01900
C2655       C  0.78636236  0.82158164  0.37987423     0.03100
C2656       C  0.78226808  0.84226505  0.36028996    -0.04700
C2657       C  0.75775772  0.83172741  0.33671455    -0.01800
C2658       C  0.73508309  0.80180514  0.33777295     0.03100
C2659       C  0.76879620  0.77054960  0.40009185     0.37800
C2660       C  0.75450687  0.85235282  0.31403371     0.37800
C2661       C  0.70886252  0.79164027  0.31587713     0.36200
C2662       C  0.81176913  0.83162270  0.40335283     0.36200
N2663       N  0.68798602  0.78353689  0.29824830    -0.38600
N2664       N  0.83182232  0.83925406  0.42237461    -0.38600
N2665       N  0.75138228  0.86862127  0.29616314    -0.38100
N2666       N  0.77328488  0.75424603  0.41587829    -0.38100
C2667       C  0.66217405  0.64021795  0.21155903    -0.04700
C2668       C  0.66544614  0.62380574  0.23954708    -0.01900
C2669       C  0.65794025  0.62644874  0.27570016     0.03100
C2670       C  0.64682720  0.64520547  0.28397957    -0.04700
C2671       C  0.64062013  0.65892514  0.25544226    -0.01800
C2672       C  0.64940829  0.65759982  0.21968514     0.03100
C2673       C  0.67867370  0.60609125  0.23169335     0.37800
C2674       C  0.62535820  0.67462872  0.26297716     0.37800
C2675       C  0.64683003  0.67564290  0.19180342     0.36200
C2676       C  0.66090058  0.60924367  0.30428827     0.36200
N2677       N  0.64555533  0.69078461  0.17001144    -0.38600
N2678       N  0.66270608  0.59486905  0.32672434    -0.38600
N2679       N  0.61225672  0.68625802  0.26900532    -0.40500
N2680       N  0.68939709  0.59213602  0.22531949    -0.38100
C2681       C  0.58663730  0.72238293  0.36974410    -0.04700
C2682       C  0.57265892  0.72545312  0.40070299    -0.01900
C2683       C  0.56894389  0.74991990  0.40437465     0.03100
C2684       C  0.57190555  0.76752352  0.37384060    -0.04700
C2685       C  0.57933854  0.76017468  0.34010156    -0.01800
C2686       C  0.59002301  0.74024327  0.33913615     0.03100
C2687       C  0.56218634  0.70380760  0.42942548     0.37800
C2688       C  0.57754022  0.77401182  0.30694271     0.37800
C2689       C  0.60647324  0.74029293  0.30773285     0.36200
C2690       C  0.56309816  0.75724477  0.44028538     0.36200
N2691       N  0.62010239  0.74194358  0.28228171    -0.38600
N2692       N  0.55920413  0.76300878  0.46932635    -0.38600
N2693       N  0.57596231  0.78491260  0.28038236    -0.38100
N2694       N  0.55187889  0.68672355  0.45255007    -0.38100
C2695       C  0.59571098  0.65186124  0.99177332    -0.04700
C2696       C  0.59149424  0.65640855  0.02882798    -0.01900
C2697       C  0.60366453  0.64742472  0.05688109     0.03100
C2698       C  0.62177810  0.63568631  0.04825489    -0.04700
C2699       C  0.62431017  0.62960500  0.01142142    -0.01800
C2700       C  0.60892679  0.63485634  0.98399714     0.03100
C2701       C  0.57472389  0.67034684  0.03836551     0.37800
C2702       C  0.64764254  0.62466235  0.99982415     0.37800
C2703       C  0.60907602  0.62453677  0.94743290     0.36200
C2704       C  0.59838289  0.65127803  0.09457057     0.36200
N2705       N  0.60898130  0.61580752  0.91853766    -0.38600
N2706       N  0.59353150  0.65411453  0.12449557    -0.38600
N2707       N  0.66681584  0.62260079  0.98806249    -0.38100
N2708       N  0.56145813  0.68157491  0.04599189    -0.38100
C2709       C  0.97380837  0.61107270  0.93311189    -0.04700
C2710       C  0.94535032  0.60709941  0.92923341    -0.01900
C2711       C  0.92597162  0.59858410  0.95922013     0.03100
C2712       C  0.93413814  0.59206459  0.99308537    -0.04700
C2713       C  0.96136218  0.59280091  0.99568025    -0.01800
C2714       C  0.98069709  0.60157106  0.96565970     0.03100
C2715       C  0.93563358  0.61104622  0.89393633     0.37800
C2716       C  0.97120258  0.58763594  0.03034919     0.37800
C2717       C  0.00816821  0.60178600  0.96925555     0.36200
C2718       C  0.89822521  0.59780416  0.95523025     0.36200
N2719       N  0.53002648  0.59779788  0.97528731    -0.38600
N2720       N  0.87642868  0.59785653  0.95184876    -0.38600
N2721       N  0.97917027  0.58380575  0.05801669    -0.38100
N2722       N  0.92711252  0.61329186  0.86585593    -0.38100
C2723       C  0.52639799  0.73369988  0.98879374    -0.04700
C2724       C  0.49688808  0.71624903  0.99963501    -0.01900
C2725       C  0.98108875  0.72660146  0.01337504     0.03100
C2726       C  0.99352202  0.75757180  0.01352462    -0.04700
C2727       C  0.52526422  0.77805696  0.00328250    -0.01800
C2728       C  0.54090136  0.76461706  0.99160783     0.03100
C2729       C  0.98593011  0.68310100  0.00182277     0.37800
C2730       C  0.53964865  0.80995243  0.00284049     0.37800
C2731       C  0.57160606  0.78282040  0.98112577     0.36200
C2732       C  0.95204265  0.70699760  0.02837509     0.36200
N2733       N  0.59611604  0.79736564  0.97310904    -0.38600
N2734       N  0.92888624  0.69117097  0.04011697    -0.38600
N2735       N  0.55135536  0.83535460  0.00221415    -0.38100
N2736       N  0.97701720  0.65816261  0.00443095    -0.38100
C2737       C  0.99553567  0.64268471  0.70245061    -0.04700
C2738       C  0.97960945  0.64631515  0.73048352    -0.01900
C2739       C  0.49319599  0.66081101  0.77421780     0.03100
C2740       C  0.51931659  0.66047201  0.78224683    -0.04700
C2741       C  0.53294614  0.65281810  0.75471629    -0.01800
C2742       C  0.52123973  0.64690023  0.71911263     0.03100
C2743       C  0.95320498  0.64709074  0.72163905     0.37800
C2744       C  0.55965657  0.65231926  0.76250193     0.37800
C2745       C  0.53686735  0.64211782  0.68994445     0.36200
C2746       C  0.47870014  0.66856960  0.80196458     0.36200
N2747       N  0.54955137  0.63869983  0.66660750    -0.38600
N2748       N  0.46740552  0.67517455  0.82391328    -0.38600
N2749       N  0.58088211  0.65177549  0.76879523    -0.38100
N2750       N  0.93273815  0.64859017  0.71410918    -0.38100
C2751       C  0.53635355  0.64963110  0.55223642    -0.04700
C2752       C  0.56497391  0.67461922  0.55512280    -0.01900
C2753       C  0.58675288  0.68078741  0.52830393     0.03100
C2754       C  0.58024666  0.66248273  0.49730807    -0.04700
C2755       C  0.55219491  0.63610064  0.49610045    -0.01800
C2756       C  0.53081679  0.62960693  0.52364768     0.03100
C2757       C  0.57205162  0.69424152  0.58592497     0.37800
C2758       C  0.54392559  0.61647062  0.46510192     0.37800
C2759       C  0.50243097  0.60284323  0.52113653     0.36200
C2760       C  0.61592952  0.70627061  0.53284218     0.36200
N2761       N  0.98151958  0.58556519  0.50347327    -0.38600
N2762       N  0.63919292  0.72658905  0.53649048    -0.38600
N2763       N  0.53706490  0.60069127  0.44045741    -0.38100
N2764       N  0.57766835  0.70988055  0.61052500    -0.38100
C2765       C  0.96694619  0.71564634  0.50525157    -0.04700
C2766       C  0.96530366  0.74059724  0.51483041    -0.01900
C2767       C  0.98291551  0.76724862  0.49656138     0.03100
C2768       C  0.49685090  0.76512915  0.46643623    -0.04700
C2769       C  0.49012907  0.73739994  0.45237965    -0.01800
C2770       C  0.47771439  0.71285284  0.47535931     0.03100
C2771       C  0.94313279  0.73772115  0.54035205     0.37800
C2772       C  0.49642069  0.73407439  0.41486687     0.37800
C2773       C  0.47656040  0.68587026  0.46441381     0.36200
C2774       C  0.98549335  0.79423887  0.50995948     0.36200
N2775       N  0.47588413  0.66443719  0.45582631    -0.38600
N2776       N  0.98815825  0.81599098  0.52092815    -0.38600
N2777       N  0.50062345  0.73085317  0.38480760    -0.38100
N2778       N  0.92420301  0.73485682  0.55900537    -0.38100
C2779       C  0.88697664  0.53020237  0.43325326    -0.04700
C2780       C  0.88876451  0.55805364  0.43150014    -0.01900
C2781       C  0.89957027  0.57788618  0.46132756     0.03100
C2782       C  0.90800914  0.57007115  0.49407048    -0.04700
C2783       C  0.90818673  0.54317832  0.49485921    -0.01800
C2784       C  0.89849781  0.52390997  0.46452566     0.03100
C2785       C  0.87789065  0.56597205  0.39981836     0.37800
C2786       C  0.91626011  0.53387262  0.52789428     0.37800
C2787       C  0.89409508  0.99004717  0.48649823     0.36200
C2788       C  0.90116174  0.60609749  0.45839404     0.36200
N2789       N  0.89296622  0.96788892  0.49173940    -0.38600
N2790       N  0.90229278  0.62851497  0.45591506    -0.38600
N2791       N  0.92256540  0.52631103  0.55420553    -0.38100
N2792       N  0.86890227  0.57264904  0.37516687    -0.38100
C2793       C  0.59092646  0.79560177  0.87589969    -0.04700
C2794       C  0.62132401  0.81734187  0.87690523    -0.01900
C2795       C  0.63063778  0.84756297  0.87476716     0.03100
C2796       C  0.61010111  0.85727697  0.87377127    -0.04700
C2797       C  0.57999001  0.83599940  0.87019557    -0.01800
C2798       C  0.57043231  0.80544386  0.87065973     0.03100
C2799       C  0.64361203  0.80935074  0.88284822     0.37800
C2800       C  0.55854462  0.84546392  0.86873769     0.37800
C2801       C  0.53913993  0.78451177  0.86827973     0.36200
C2802       C  0.66191022  0.86871806  0.87488463     0.36200
N2803       N  0.51412692  0.76794148  0.86633178    -0.38600
N2804       N  0.68708572  0.88446656  0.87509419    -0.38600
N2805       N  0.54144043  0.85302329  0.86767030    -0.38100
N2806       N  0.66157852  0.80350916  0.88889007    -0.38100
C2807       C  0.66260267  0.53180756  0.93828080    -0.04700
C2808       C  0.69297448  0.55371473  0.94224942    -0.01900
C2809       C  0.70291319  0.57429637  0.97145183     0.03100
C2810       C  0.68296458  0.57414128  0.99734820    -0.04700
C2811       C  0.65247989  0.55381754  0.99188201    -0.01800
C2812       C  0.64249426  0.53323276  0.96271699     0.03100
C2813       C  0.71493199  0.55539507  0.91710717     0.37800
C2814       C  0.63079029  0.55443231  0.01558952     0.37800
C2815       C  0.61108553  0.51423877  0.95729780     0.36200
C2816       C  0.73421132  0.59490314  0.97554577     0.36200
N2817       N  0.58934083  0.97660431  0.97902315    -0.38600
N2818       N  0.75918067  0.61129373  0.97864835    -0.38600
N2819       N  0.61328662  0.55481700  0.03418283    -0.38100
N2820       N  0.73337240  0.55773589  0.89788298    -0.38100
C2821       C  0.73254052  0.02500942  0.97575051    -0.04700
C2822       C  0.73731322  0.51833924  0.99638370    -0.01900
C2823       C  0.76365011  0.53665097  0.01435737     0.03100
C2824       C  0.78941366  0.53712283  0.00318996    -0.04700
C2825       C  0.78468504  0.04319204  0.98302809    -0.01800
C2826       C  0.76130634  0.03991751  0.96146902     0.03100
C2827       C  0.70972622  0.51455099  0.00985777     0.37800
C2828       C  0.81228625  0.05120767  0.96516742     0.37800
C2829       C  0.76648166  0.04886081  0.92351356     0.36200
C2830       C  0.76497045  0.55685319  0.04182515     0.36200
N2831       N  0.77062623  0.05606517  0.89333270    -0.38600
N2832       N  0.76589041  0.57408021  0.06200944    -0.38600
N2833       N  0.83367186  0.05661360  0.95001468    -0.38100
N2834       N  0.68773923  0.51148962  0.02066766    -0.38100
C2835       C  0.58244207  0.91315050  0.99588325    -0.04700
C2836       C  0.58967492  0.91184794  0.03290712    -0.01900
C2837       C  0.56721431  0.89761967  0.05969439     0.03100
C2838       C  0.53703348  0.88299960  0.05002630    -0.04700
C2839       C  0.52994707  0.88550754  0.01357075    -0.01800
C2840       C  0.55220306  0.90209567  0.98772710     0.03100
C2841       C  0.62012848  0.92518123  0.04410272     0.37800
C2842       C  0.49990090  0.86853039  0.00082868     0.37800
C2843       C  0.54328610  0.90822891  0.95296702     0.36200
C2844       C  0.57537848  0.89839775  0.09750623     0.36200
N2845       N  0.53597378  0.91340579  0.92565771    -0.38600
N2846       N  0.58209596  0.89943927  0.12764287    -0.38600
N2847       N  0.97758537  0.86334255  0.98757924    -0.38100
N2848       N  0.64438208  0.93577435  0.05341015    -0.38100
C2849       C  0.67525815  0.58417747  0.49991678    -0.04700
C2850       C  0.65057868  0.58791033  0.50437840    -0.01900
C2851       C  0.64090278  0.59877642  0.47567171     0.03100
C2852       C  0.65691014  0.60822061  0.44280148    -0.04700
C2853       C  0.68119764  0.60382648  0.43800988    -0.01800
C2854       C  0.69003112  0.59158481  0.46615286     0.03100
C2855       C  0.63654902  0.58322534  0.53972819     0.37800
C2856       C  0.69839748  0.61345863  0.40479971     0.37800
C2857       C  0.71492697  0.58744616  0.46056394     0.36200
C2858       C  0.61566949  0.60225164  0.48156670     0.36200
N2859       N  0.73488820  0.58430419  0.45613196    -0.38600
N2860       N  0.59529438  0.60440933  0.48731908    -0.38600
N2861       N  0.71269402  0.62146269  0.37877731    -0.38100
N2862       N  0.62551038  0.57977791  0.56792533    -0.38100
C2863       C  0.79060339  0.54354832  0.63525471    -0.04700
C2864       C  0.80302955  0.52999025  0.61441549    -0.01900
C2865       C  0.83404633  0.54223517  0.61307680     0.03100
C2866       C  0.85288187  0.56729975  0.63410810    -0.04700
C2867       C  0.83964212  0.57663394  0.66034741    -0.01800
C2868       C  0.80883887  0.56546246  0.66022597     0.03100
C2869       C  0.78381503  0.50346501  0.59426932     0.37800
C2870       C  0.85762491  0.59763617  0.68779878     0.37800
C2871       C  0.79598640  0.57729843  0.68483380     0.36200
C2872       C  0.84654159  0.53017673  0.58829235     0.36200
N2873       N  0.78567676  0.58661916  0.70461569    -0.38600
N2874       N  0.85637394  0.52030750  0.56862092    -0.38600
N2875       N  0.87098063  0.61364528  0.71100674    -0.38100
N2876       N  0.76854829  0.48178740  0.57898377    -0.38100
C2877       C  0.65103372  0.98937322  0.77813967    -0.04700
C2878       C  0.66895931  0.51388166  0.77494260    -0.01900
C2879       C  0.67416202  0.52562780  0.73972854     0.03100
C2880       C  0.65507086  0.50905219  0.71151868    -0.04700
C2881       C  0.63285777  0.98888354  0.71680724    -0.01800
C2882       C  0.62840588  0.97634841  0.75190633     0.03100
C2883       C  0.68995739  0.53041518  0.80332128     0.37800
C2884       C  0.61103977  0.97399063  0.68855981     0.37800
C2885       C  0.60139363  0.94924426  0.76015397     0.36200
C2886       C  0.70033896  0.55373643  0.73185458     0.36200
N2887       N  0.57971648  0.92771118  0.76681200    -0.38600
N2888       N  0.72113097  0.57611556  0.72538476    -0.38600
N2889       N  0.59368033  0.96218340  0.66596640    -0.38100
N2890       N  0.70732089  0.54424772  0.82510070    -0.38100
C2891       C  0.59112610  0.91812512  0.49891491    -0.04700
C2892       C  0.59526212  0.91027505  0.53448584    -0.01900
C2893       C  0.60682921  0.93164499  0.56248035     0.03100
C2894       C  0.61430636  0.96102700  0.55562878    -0.04700
C2895       C  0.60547459  0.96749981  0.52242952    -0.01800
C2896       C  0.59432529  0.94644477  0.49408660     0.03100
C2897       C  0.58927385  0.88078829  0.54239487     0.37800
C2898       C  0.60931187  0.99641987  0.51639638     0.37800
C2899       C  0.58722895  0.95478057  0.45962850     0.36200
C2900       C  0.61216003  0.92372975  0.59829193     0.36200
N2901       N  0.58196789  0.96177943  0.43211529    -0.38600
N2902       N  0.61633460  0.91737713  0.62687573    -0.38600
N2903       N  0.61173867  0.01916422  0.51111758    -0.38100
N2904       N  0.58447314  0.85730108  0.54893719    -0.38100
C2905       C  0.76198260  0.96734573  0.48421021    -0.04700
C2906       C  0.73127374  0.95548525  0.48335397    -0.01900
C2907       C  0.71945374  0.97218292  0.49670718     0.03100
C2908       C  0.73869230  0.50072839  0.51229397    -0.04700
C2909       C  0.76943614  0.51654988  0.50722755    -0.01800
C2910       C  0.78313412  0.50233371  0.49208046     0.03100
C2911       C  0.71204014  0.92662521  0.46782170     0.37800
C2912       C  0.78731221  0.54669240  0.51987248     0.37800
C2913       C  0.81483703  0.51708545  0.49031993     0.36200
C2914       C  0.68791833  0.96037314  0.49642359     0.36200
N2915       N  0.84016954  0.52869862  0.48989818    -0.38600
N2916       N  0.66278496  0.95103537  0.49587661    -0.38600
N2917       N  0.80186885  0.57065395  0.52989429    -0.38100
N2918       N  0.69653320  0.90363253  0.45551210    -0.38100
C2919       C  0.87949999  0.83859899  0.93712427    -0.04700
C2920       C  0.89813254  0.85920885  0.96335971    -0.01900
C2921       C  0.91106186  0.85101144  0.99152925     0.03100
C2922       C  0.90602072  0.82172849  0.99425582    -0.04700
C2923       C  0.88932862  0.80181456  0.96597692    -0.01800
C2924       C  0.87660809  0.81024556  0.93770850     0.03100
C2925       C  0.90318864  0.88887231  0.96272887     0.37800
C2926       C  0.88389763  0.77196469  0.96625509     0.37800
C2927       C  0.86017572  0.78924714  0.90914332     0.36200
C2928       C  0.92950117  0.87340116  0.01777919     0.36200
N2929       N  0.84704676  0.77243094  0.88647062    -0.38600
N2930       N  0.94421742  0.89146564  0.03845731    -0.38600
N2931       N  0.87942141  0.74809628  0.96626167    -0.38100
N2932       N  0.90764638  0.91270394  0.96252344    -0.38100
C2933       C  0.73839339  0.72541974  0.00761451    -0.04700
C2934       C  0.71731756  0.73230633  0.99493231    -0.01900
C2935       C  0.72640764  0.75916558  0.97751515     0.03100
C2936       C  0.75651446  0.77992641  0.97523965    -0.04700
C2937       C  0.77751517  0.77384733  0.98959065    -0.01800
C2938       C  0.76870031  0.74584420  0.00328712     0.03100
C2939       C  0.68626602  0.71188749  0.99951665     0.37800
C2940       C  0.80803742  0.79706983  0.99169426     0.37800
C2941       C  0.79090216  0.73891428  0.01458530     0.36200
C2942       C  0.70496107  0.76522530  0.96113561     0.36200
N2943       N  0.80883126  0.73364727  0.02329465    -0.38600
N2944       N  0.68787618  0.77000247  0.94798090    -0.38600
N2945       N  0.83209380  0.81602146  0.99462759    -0.38100
N2946       N  0.66127474  0.69639012  0.00309777    -0.38100
C2947       C  0.71193983  0.77537096  0.84494145    -0.04700
C2948       C  0.70660460  0.74743999  0.85644921    -0.01900
C2949       C  0.67744298  0.72375609  0.86034415     0.03100
C2950       C  0.65360729  0.72731516  0.85066033    -0.04700
C2951       C  0.65932657  0.75331639  0.83248653    -0.01800
C2952       C  0.68836527  0.77770718  0.83074701     0.03100
C2953       C  0.73086036  0.74358556  0.86736158     0.37800
C2954       C  0.63493137  0.75561112  0.81823481     0.37800
C2955       C  0.69377090  0.80564505  0.81650784     0.36200
C2956       C  0.67184955  0.69661571  0.87740315     0.36200
N2957       N  0.69794841  0.82799260  0.80545934    -0.38600
N2958       N  0.66755024  0.67504591  0.89113139    -0.38600
N2959       N  0.61541845  0.75723101  0.80658428    -0.38100
N2960       N  0.75001837  0.74012703  0.87587569    -0.38100
C2961       C  0.78328776  0.92989251  0.86308962    -0.04700
C2962       C  0.78674898  0.94835777  0.89278945    -0.01900
C2963       C  0.76536917  0.95638347  0.90004978     0.03100
C2964       C  0.74282193  0.95010852  0.87468546    -0.04700
C2965       C  0.74295663  0.93689827  0.84132971    -0.01800
C2966       C  0.76206967  0.92553239  0.83635717     0.03100
C2967       C  0.81201130  0.95883830  0.91638096     0.37800
C2968       C  0.72182108  0.93285801  0.81342076     0.37800
C2969       C  0.75908806  0.90828872  0.80435669     0.36200
C2970       C  0.76545568  0.96922909  0.93488629     0.36200
N2971       N  0.75645539  0.89454945  0.77864213    -0.38600
N2972       N  0.76515160  0.97859343  0.96319751    -0.38600
N2973       N  0.70496574  0.92975492  0.79117418    -0.38100
N2974       N  0.83260313  0.96863305  0.93477115    -0.38100
C2975       C  0.83119774  0.92232633  0.99087694    -0.04700
C2976       C  0.81096487  0.91636088  0.01951641    -0.01900
C2977       C  0.81787091  0.93670267  0.04832390     0.03100
C2978       C  0.84545907  0.96342263  0.04959558    -0.04700
C2979       C  0.86666727  0.96795664  0.02274879    -0.01800
C2980       C  0.85955056  0.94792934  0.99352365     0.03100
C2981       C  0.78279896  0.88908101  0.01965444     0.37800
C2982       C  0.89567981  0.49494934  0.00955991     0.37800
C2983       C  0.88087826  0.95557942  0.96444871     0.36200
C2984       C  0.79607803  0.92983527  0.07653909     0.36200
N2985       N  0.89791998  0.96220648  0.94123201    -0.38600
N2986       N  0.77834186  0.92411219  0.09863248    -0.38600
N2987       N  0.91877110  0.51585308  0.00812752    -0.38100
N2988       N  0.76034649  0.86734781  0.01975832    -0.38100
C2989       C  0.86624940  0.88072607  0.55756888    -0.04700
C2990       C  0.88054148  0.88796389  0.52331073    -0.01900
C2991       C  0.86931731  0.89648277  0.49396510     0.03100
C2992       C  0.84479873  0.90029970  0.49882059    -0.04700
C2993       C  0.83333808  0.89749999  0.53447318    -0.01800
C2994       C  0.84424217  0.88809488  0.56362314     0.03100
C2995       C  0.90743974  0.88763282  0.51757795     0.37800
C2996       C  0.80991037  0.90364852  0.54134744     0.37800
C2997       C  0.83402775  0.88788420  0.60025226     0.36200
C2998       C  0.88271583  0.89999789  0.45832469     0.36200
N2999       N  0.82623140  0.88872514  0.62937459    -0.38600
N3000       N  0.89352904  0.90272596  0.43011781    -0.38600
N3001       N  0.79102843  0.90827829  0.54695799    -0.38100
N3002       N  0.92944407  0.88867030  0.51167862    -0.38100
C3003       C  0.78481977  0.75952360  0.51751525    -0.04700
C3004       C  0.77164800  0.77634970  0.50814265    -0.01900
C3005       C  0.74328037  0.76265604  0.49327140     0.03100
C3006       C  0.72791235  0.73213752  0.48759871    -0.04700
C3007       C  0.74016353  0.71508428  0.49811227    -0.01800
C3008       C  0.76899369  0.72870985  0.51142248     0.03100
C3009       C  0.78754245  0.80802164  0.51187889     0.37800
C3010       C  0.72288744  0.68330148  0.49515361     0.37800
C3011       C  0.78217651  0.71071027  0.51727359     0.36200
C3012       C  0.73060502  0.78021799  0.48169413     0.36200
N3013       N  0.79256182  0.69609404  0.52060850    -0.38600
N3014       N  0.72055766  0.79422495  0.47242465    -0.38600
N3015       N  0.70917314  0.65794358  0.49362045    -0.38100
N3016       N  0.79974056  0.83328558  0.51469451    -0.38100
C3017       C  0.79130038  0.69982556  0.61988906    -0.04700
C3018       C  0.79586472  0.67908357  0.60076307    -0.01900
C3019       C  0.77243667  0.65047769  0.59465169     0.03100
C3020       C  0.74581484  0.63905469  0.61456699    -0.04700
C3021       C  0.74163041  0.65863597  0.63647248    -0.01800
C3022       C  0.76373871  0.68914595  0.63790193     0.03100
C3023       C  0.82463510  0.68629656  0.58697282     0.37800
C3024       C  0.71506492  0.64740267  0.65796971     0.37800
C3025       C  0.75865020  0.70899139  0.65969626     0.36200
C3026       C  0.77588105  0.63304852  0.56644974     0.36200
N3027       N  0.75456354  0.72476985  0.67726209    -0.38600
N3028       N  0.77884565  0.61950933  0.54385277    -0.38600
N3029       N  0.69389467  0.63841195  0.67528796    -0.38100
N3030       N  0.84745318  0.69153991  0.57632542    -0.38100
C3031       C  0.85266339  0.85874895  0.77979188    -0.04700
C3032       C  0.87575841  0.85264662  0.77602056    -0.01900
C3033       C  0.88032605  0.84239021  0.74255201     0.03100
C3034       C  0.86172284  0.83807740  0.71278973    -0.04700
C3035       C  0.83871471  0.84432168  0.71661946    -0.01800
C3036       C  0.83476414  0.85535464  0.74966454     0.03100
C3037       C  0.89378522  0.85543597  0.80727087     0.37800
C3038       C  0.81758793  0.83726481  0.68750066     0.37800
C3039       C  0.81082099  0.86119175  0.75349878     0.36200
C3040       C  0.90193483  0.83319848  0.73990133     0.36200
N3041       N  0.79170974  0.86582041  0.75646747    -0.38600
N3042       N  0.91875038  0.82531582  0.73788690    -0.38600
N3043       N  0.80021647  0.83076136  0.66473690    -0.38100
N3044       N  0.90812959  0.85765751  0.83224289    -0.38100
C3045       C  0.92647664  0.76617846  0.64209373    -0.04700
C3046       C  0.95420538  0.77130703  0.63091205    -0.01900
C3047       C  0.95984962  0.74781214  0.62995762     0.03100
C3048       C  0.93717387  0.71886316  0.63900718    -0.04700
C3049       C  0.91098244  0.71483450  0.65471266    -0.01800
C3050       C  0.90626718  0.73880402  0.65764599     0.03100
C3051       C  0.97555712  0.79997600  0.61656502     0.37800
C3052       C  0.88794576  0.68576547  0.66541465     0.37800
C3053       C  0.87944697  0.73483898  0.67393250     0.36200
C3054       C  0.98740668  0.75288615  0.61465098     0.36200
N3055       N  0.85823867  0.73181914  0.68735119    -0.38600
N3056       N  0.00938492  0.75727992  0.60204286    -0.38600
N3057       N  0.86904906  0.66270901  0.67374178    -0.38100
N3058       N  0.99247668  0.82289567  0.60515421    -0.38100
C3059       C  0.93820126  0.83008562  0.49937738    -0.04700
C3060       C  0.93139927  0.81278262  0.46718485    -0.01900
C3061       C  0.95010544  0.82305744  0.43620672     0.03100
C3062       C  0.97671285  0.85070727  0.43643640    -0.04700
C3063       C  0.98277901  0.86852655  0.46807582    -0.01800
C3064       C  0.96476572  0.85778745  0.49954589     0.03100
C3065       C  0.90614758  0.78313537  0.46622097     0.37800
C3066       C  0.49967022  0.90039940  0.45104500     0.37800
C3067       C  0.97466006  0.87550877  0.53243029     0.36200
C3068       C  0.94134259  0.80462664  0.40399450     0.36200
N3069       N  0.98273731  0.88987825  0.55836692    -0.38600
N3070       N  0.93413424  0.78981457  0.37842972    -0.38600
N3071       N  0.51400222  0.92525545  0.44473216    -0.38100
N3072       N  0.88619747  0.75938908  0.46533047    -0.38100
loop_ 
_geom_bond_atom_site_label_1 
_geom_bond_atom_site_label_2 
_geom_bond_distance 
_geom_bond_site_symmetry_2 
_ccdc_geom_bond_type 
Fe1          O17   2.099       .  S
Fe1           O7   2.027       .  S
Fe1          O14   2.047       .  S
Fe1           O6   2.121       .  S
Fe1          O12   1.933       .  S
Fe2           O5   2.120       .  S
Fe2           O9   2.078       .  S
Fe2          O13   2.102       .  S
Fe2          O18   2.098       .  S
Fe2          O12   1.936       .  S
Fe3          O21   2.054       .  S
Fe3           O8   2.063       .  S
Fe3          O15   2.069       .  S
Fe3           O4   2.050       .  S
Fe3          O12   1.912       .  S
O4           C11   1.267       .  A
O5           C19   1.279       .  A
O6           C11   1.278       .  A
O7           C10   1.264       .  A
O8           C20   1.269       .  A
O9           C22   1.278       .  A
C10          O15   1.269       .  A
C10         C699   1.486       .  S
C11         C713   1.511       .  S
O13          C16   1.275       .  A
O14          C16   1.267       .  A
C16         C730   1.489       .  S
O17          C22   1.279       .  A
O18          C20   1.276       .  A
C19          O21   1.267       .  A
C19         C755   1.523       .  S
C20         C741   1.485       .  S
C22         C685   1.516       .  S
Fe23         O39   2.055       .  S
Fe23         O29   2.021       .  S
Fe23         O36   2.040       .  S
Fe23         O28   2.072       .  S
Fe23         O34   1.965       .  S
Fe24         O27   2.049       .  S
Fe24         O31   2.123       .  S
Fe24         O35   2.093       .  S
Fe24         O40   2.143       .  S
Fe24         O34   1.961       .  S
Fe25         O43   2.093       .  S
Fe25         O30   2.051       .  S
Fe25         O37   2.054       .  S
Fe25         O26   2.077       .  S
Fe25         O34   1.963       .  S
O26          C33   1.271       .  A
O27          C41   1.263       .  A
O28          C33   1.271       .  A
O29          C32   1.261       .  A
O30          C42   1.269       .  A
O31          C44   1.281       .  A
C32          O37   1.268       .  A
C32         C632   1.452       .  S
C33         C643   1.487       .  S
O35          C38   1.274       .  A
O36          C38   1.263       .  A
C38         C727   1.479       .  S
O39          C44   1.267       .  A
O40          C42   1.287       .  A
C41          O43   1.271       .  A
C41         C671   1.512       .  S
C42         C657   1.499       .  S
C44         C615   1.510       .  S
Fe45         O51   2.052       .  S
Fe45         O58   2.060       .  S
Fe45         O50   2.095   1_565  S
Fe45        O829   2.036       .  S
Fe45         O56   1.944   1_565  S
Fe46         O49   2.032       .  S
Fe46         O53   2.118       .  S
Fe46         O57   2.067       .  S
Fe46         O62   2.162       .  S
Fe46         O56   1.954       .  S
Fe47         O65   2.130       .  S
Fe47         O52   2.018       .  S
Fe47         O59   2.031       .  S
Fe47         O48   2.095       .  S
Fe47         O56   1.928       .  S
O48          C55   1.272       .  A
O49          C63   1.258       .  A
O50          C55   1.276       .  A
O51          C54   1.268   1_565  A
O52          C64   1.259       .  A
O53         C834   1.282   1_545  A
C54          O59   1.265       .  A
C54         C604   1.445   1_545  S
C55         C559   1.502       .  S
O57          C60   1.270       .  A
O58          C60   1.269   1_565  A
C60         C576   1.472       .  S
O61        Fe813   2.038       .  S
O61          C66   1.267       .  A
O62          C64   1.288       .  A
C63          O65   1.277       .  A
C63         C545   1.510       .  S
C64         C716   1.507       .  S
C66         O821   1.284       .  A
C66         C590   1.498       .  S
Fe67         O73   2.016       .  S
Fe67         O80   2.033       .  S
Fe67         O72   2.096       .  S
Fe67        O851   2.087       .  S
Fe67         O78   1.949       .  S
Fe68         O71   2.081       .  S
Fe68         O75   2.081       .  S
Fe68         O79   2.104       .  S
Fe68         O84   2.095       .  S
Fe68         O78   1.955       .  S
Fe69         O87   2.095       .  S
Fe69         O74   2.066       .  S
Fe69         O81   2.044       .  S
Fe69         O70   2.082       .  S
Fe69         O78   1.922       .  S
O70          C77   1.275       .  A
O71          C85   1.266       .  A
O72          C77   1.274       .  A
O73          C76   1.259       .  A
O74          C86   1.278       .  A
O75         C856   1.278       .  A
C76          O81   1.271       .  A
C76         C517   1.453       .  S
C77         C660   1.500       .  S
O79          C82   1.270       .  A
O80          C82   1.258       .  A
C82         C573   1.486       .  S
O83        Fe835   2.115   1_545  S
O83          C88   1.286       .  A
O84          C86   1.288       .  A
C85          O87   1.268       .  A
C85         C531   1.529       .  S
C86         C492   1.484       .  S
C88         O843   1.282   1_545  A
C88         C503   1.532       .  S
Fe89         O95   2.066       .  S
Fe89        O102   2.082       .  S
Fe89         O94   2.050       .  S
Fe89       O1641   2.036       .  S
Fe89        O100   1.938       .  S
Fe90         O93   2.051       .  S
Fe90         O97   2.151       .  S
Fe90        O101   2.078       .  S
Fe90        O106   2.166       .  S
Fe90        O100   1.938       .  S
Fe91        O109   2.131       .  S
Fe91         O96   2.036       .  S
Fe91        O103   2.038       .  S
Fe91         O92   2.127       .  S
Fe91        O100   1.938       .  S
O92          C99   1.284       .  A
O93         C107   1.267       .  A
O94          C99   1.268       .  A
O95          C98   1.269       .  A
O96         C108   1.264       .  A
O97        C1646   1.288       .  A
C98         O103   1.262       .  A
C98         C461   1.458       .  S
C99         C744   1.497       .  S
O101        C104   1.274       .  A
O102        C104   1.269       .  A
C104        C433   1.489       .  S
O105      Fe1625   2.060   1_455  S
O105        C110   1.272       .  A
O106        C108   1.290       .  A
C107        O109   1.284       .  A
C107        C478   1.516       .  S
C108        C562   1.511       .  S
C110       O1633   1.285   1_455  A
C110        C447   1.508       .  S
Fe111       O117   2.010       .  S
Fe111       O124   2.034       .  S
Fe111       O116   2.079       .  S
Fe111      O1663   2.086   1_455  S
Fe111       O122   1.930       .  S
Fe112       O115   2.080       .  S
Fe112       O119   2.082       .  S
Fe112       O123   2.109       .  S
Fe112       O128   2.087       .  S
Fe112       O122   1.941       .  S
Fe113       O131   2.083       .  S
Fe113       O118   2.070       .  S
Fe113       O125   2.058       .  S
Fe113       O114   2.078       .  S
Fe113       O122   1.943       .  S
O114        C121   1.276       .  A
O115        C129   1.270       .  A
O116        C121   1.272       .  A
O117        C120   1.260       .  A
O118        C130   1.274       .  A
O119       C1668   1.273       .  A
C120        O125   1.267       .  A
C120        C419   1.461       .  S
C121        C489   1.513       .  S
O123        C126   1.275       .  A
O124        C126   1.262       .  A
C126        C436   1.492       .  S
O127      Fe1647   2.038       .  S
O127        C132   1.267       .  A
O128        C130   1.279       .  A
C129        O131   1.270       .  A
C129        C391   1.524       .  S
C130        C646   1.481       .  S
C132       O1655   1.288       .  A
C132        C405   1.517       .  S
Fe133       O149   2.035       .  S
Fe133       O139   2.038       .  S
Fe133       O146   2.066       .  S
Fe133       O138   2.043       .  S
Fe133       O144   1.969       .  S
Fe134       O137   2.096       .  S
Fe134       O141   2.044       .  S
Fe134       O145   2.102       .  S
Fe134       O150   2.041       .  S
Fe134       O144   1.954       .  S
Fe135       O153   2.067       .  S
Fe135       O140   2.150       .  S
Fe135       O147   2.132       .  S
Fe135       O136   2.092       .  S
Fe135       O144   1.965       .  S
O136        C143   1.271       .  A
O137        C151   1.273       .  A
O138        C143   1.261       .  A
O139        C142   1.266       .  A
O140        C152   1.291       .  A
O141        C154   1.263       .  A
C142        O147   1.286       .  A
C142        C548   1.503       .  S
C143        C366   1.483       .  S
O145        C148   1.276       .  A
O146        C148   1.270       .  A
C148        C349   1.491       .  S
O149        C154   1.263       .  A
O150        C152   1.269       .  A
C151        O153   1.264       .  A
C151        C450   1.526       .  S
C152        C377   1.498       .  S
C154        C702   1.458       .  S
Fe155       O171   2.021       .  S
Fe155       O161   2.089       .  S
Fe155       O168   2.085       .  S
Fe155       O160   2.035       .  S
Fe155       O166   1.944       .  S
Fe156       O159   2.086       .  S
Fe156       O163   2.069       .  S
Fe156       O167   2.096       .  S
Fe156       O172   2.080       .  S
Fe156       O166   1.941       .  S
Fe157       O175   2.091       .  S
Fe157       O162   2.091       .  S
Fe157       O169   2.082       .  S
Fe157       O158   2.119       .  S
Fe157       O166   1.960       .  S
O158        C165   1.277       .  A
O159        C173   1.270       .  A
O160        C165   1.263       .  A
O161        C164   1.274       .  A
O162        C174   1.280       .  A
O163        C176   1.272       .  A
C164        O169   1.274       .  A
C164        C394   1.513       .  S
C165        C363   1.499       .  S
O167        C170   1.276       .  A
O168        C170   1.272       .  A
C170        C324   1.511       .  S
O171        C176   1.264       .  A
O172        C174   1.278       .  A
C173        O175   1.271       .  A
C173        C506   1.533   1_554  S
C174        C335   1.487       .  S
C176        C629   1.472       .  S
Fe177       O193   2.020       .  S
Fe177       O190   2.060       .  S
Fe177       O182   2.053       .  S
Fe177       O951   2.038       .  S
Fe177       O188   1.960       .  S
Fe178       O181   2.095       .  S
Fe178       O185   2.040       .  S
Fe178       O189   2.087       .  S
Fe178       O194   2.028       .  S
Fe178       O188   1.966       .  S
Fe179       O197   2.045       .  S
Fe179       O184   2.137       .  S
Fe179       O191   2.131       .  S
Fe179       O180   2.084       .  S
Fe179       O188   1.956       .  S
O180        C187   1.268       .  A
O181        C195   1.269       .  A
O182        C187   1.262       .  A
O183       Fe945   2.036   1_545  S
O183        C186   1.266       .  A
O184        C196   1.288       .  A
O185        C198   1.262       .  A
C186        O959   1.286   1_545  A
C186        C475   1.513       .  S
C187        C310   1.490       .  S
O189        C192   1.275       .  A
O190        C192   1.272       .  A
O191        C954   1.286       .  A
C192        C296   1.486       .  S
O193        C198   1.259       .  A
O194        C196   1.268       .  A
C195        O197   1.261       .  A
C195        C688   1.512       .  S
C196        C352   1.489       .  S
C198        C601   1.440       .  S
Fe199       O215   2.075       .  S
Fe199       O212   2.064       .  S
Fe199       O204   2.080       .  S
Fe199       O973   2.041   1_545  S
Fe199       O210   1.937       .  S
Fe200       O203   2.130       .  S
Fe200       O207   2.014       .  S
Fe200       O211   2.126       .  S
Fe200       O216   2.003       .  S
Fe200       O210   1.931       .  S
Fe201       O219   2.043       .  S
Fe201       O206   2.159       .  S
Fe201       O213   2.130       .  S
Fe201       O202   2.057       .  S
Fe201       O210   1.946       .  S
O202        C209   1.271       .  A
O203        C217   1.282       .  A
O204        C209   1.273       .  A
O205       Fe967   2.042       .  S
O205        C208   1.271       .  A
O206        C218   1.287       .  A
O207        C220   1.259       .  A
C208        O981   1.289       .  A
C208        C674   1.509       .  S
C209        C307   1.485       .  S
O211        C214   1.281       .  A
O212        C214   1.268       .  A
O213        C976   1.284   1_545  A
C214        C338   1.501       .  S
O215        C220   1.273       .  A
O216        C218   1.260       .  A
C217        O219   1.262       .  A
C217        C408   1.511   1_554  S
C218        C279   1.495       .  S
C220        C520   1.447       .  S
Fe221       O237   2.021       .  S
Fe221       O234   2.062       .  S
Fe221       O226   2.033       .  S
Fe221      O1763   2.079       .  S
Fe221       O232   1.950       .  S
Fe222       O225   2.111       .  S
Fe222       O229   2.053       .  S
Fe222       O233   2.127       .  S
Fe222       O238   2.065       .  S
Fe222       O232   1.953       .  S
Fe223       O241   2.062       .  S
Fe223       O228   2.101       .  S
Fe223       O235   2.079       .  S
Fe223       O224   2.106       .  S
Fe223       O232   1.960       .  S
O224        C231   1.273       .  A
O225        C239   1.276       .  A
O226        C231   1.261       .  A
O227      Fe1757   2.075   1_455  S
O227        C230   1.268       .  A
O228        C240   1.283       .  A
O229        C242   1.268       .  A
C230       O1771   1.274   1_455  A
C230        C534   1.521       .  S
C231        C265   1.492       .  S
O233        C236   1.283       .  A
O234        C236   1.266       .  A
O235       C1766   1.273       .  A
C236        C282   1.512       .  S
O237        C242   1.264       .  A
O238        C240   1.274       .  A
C239        O241   1.265       .  A
C239        C618   1.532   1_554  S
C240        C321   1.486       .  S
C242        C422   1.460       .  S
Fe243       O259   2.011       .  S
Fe243       O256   2.099       .  S
Fe243       O248   2.036       .  S
Fe243      O1785   2.106   1_455  S
Fe243       O254   1.934       .  S
Fe244       O247   2.084       .  S
Fe244       O251   2.075       .  S
Fe244       O255   2.070       .  S
Fe244       O260   2.099       .  S
Fe244       O254   1.917       .  S
Fe245       O263   2.078       .  S
Fe245       O250   2.074       .  S
Fe245       O257   2.052       .  S
Fe245       O246   2.099       .  S
Fe245       O254   1.956       .  S
O246        C253   1.267       .  A
O247        C261   1.264       .  A
O248        C253   1.258       .  A
O249      Fe1779   2.108       .  S
O249        C252   1.283       .  A
O250        C262   1.283       .  A
O251        C264   1.273       .  A
C252       O1793   1.274       .  A
C252        C758   1.524       .  S
C253        C268   1.482       .  S
O255        C258   1.274       .  A
O256        C258   1.276       .  A
O257       C1788   1.275       .  A
C258        C380   1.503       .  S
O259        C264   1.257       .  A
O260        C262   1.286       .  A
C261        O263   1.264       .  A
C261        C587   1.520       .  S
C262        C293   1.483       .  S
C264        C464   1.457   1_455  S
C265        C270   1.416       .  A
C265       C1802   1.422       .  A
C266        C267   1.406       .  A
C266       C1801   1.424       .  A
C266        C271   1.453       .  S
C267        C268   1.405       .  A
C267        C274   1.454       .  S
C268       C1805   1.416       .  A
C269        C270   1.416       .  A
C269       C1804   1.413       .  A
C269        C272   1.450       .  S
C270        C273   1.449       .  S
C271        N278   1.157       .  T
C272        N277   1.157       .  T
C273        N275   1.158       .  T
C274        N276   1.158       .  T
C279        C280   1.407       .  A
C279        C284   1.406       .  A
C280        C281   1.412       .  A
C280        C285   1.448       .  S
C281        C282   1.413       .  A
C281        C288   1.438       .  S
C282        C283   1.429       .  A
C283        C284   1.423       .  A
C283        C286   1.448       .  S
C284        C287   1.447       .  S
C285        N292   1.157       .  T
C286        N291   1.157       .  T
C287        N289   1.157       .  T
C288        N290   1.154       .  T
C293        C294   1.407       .  A
C293        C298   1.408       .  A
C294        C295   1.404       .  A
C294        C299   1.444       .  S
C295        C296   1.409       .  A
C295        C302   1.447       .  S
C296        C297   1.421       .  A
C297        C298   1.418       .  A
C297        C300   1.450       .  S
C298        C301   1.449       .  S
C299        N306   1.154       .  T
C300        N305   1.157       .  T
C301        N303   1.157       .  T
C302        N304   1.155       .  T
C307        C312   1.411       .  A
C307       C1076   1.414   1_545  A
C308        C309   1.413       .  A
C308       C1075   1.418       .  A
C308        C313   1.449       .  S
C309        C310   1.409       .  A
C309        C316   1.451       .  S
C310       C1079   1.417       .  A
C311        C312   1.408       .  A
C311       C1078   1.413   1_545  A
C311        C314   1.450       .  S
C312        C315   1.450       .  S
C313        N320   1.157       .  T
C314        N319   1.157       .  T
C315        N317   1.157       .  T
C316        N318   1.157       .  T
C321        C322   1.410       .  A
C321        C326   1.397       .  A
C322        C323   1.420       .  A
C322        C327   1.449       .  S
C323        C324   1.426       .  A
C323        C330   1.450       .  S
C324        C325   1.417       .  A
C325        C326   1.412       .  A
C325        C328   1.438       .  S
C326        C329   1.446       .  S
C327        N334   1.157       .  T
C328        N333   1.154       .  T
C329        N331   1.157       .  T
C330        N332   1.157       .  T
C335        C336   1.402       .  A
C335        C340   1.406       .  A
C336        C337   1.415       .  A
C336        C341   1.448       .  S
C337        C338   1.413       .  A
C337        C344   1.441       .  S
C338        C339   1.421       .  A
C339        C340   1.418       .  A
C339        C342   1.449       .  S
C340        C343   1.447       .  S
C341        N348   1.158       .  T
C342        N347   1.157   1_545  T
C343        N345   1.157       .  T
C344        N346   1.155       .  T
C349        C350   1.415       .  A
C349        C354   1.409       .  A
C350        C351   1.415       .  A
C350        C355   1.449       .  S
C351        C352   1.411       .  A
C351        C358   1.450       .  S
C352        C353   1.415       .  A
C353        C354   1.417       .  A
C353        C356   1.449       .  S
C354        C357   1.449       .  S
C355        N362   1.157       .  T
C356        N361   1.157       .  T
C357        N359   1.157       .  T
C358        N360   1.157       .  T
C363        C364   1.416       .  A
C363        C368   1.422       .  A
C364        C365   1.418       .  A
C364        C369   1.450       .  S
C365        C366   1.413       .  A
C365        C372   1.450       .  S
C366        C367   1.407       .  A
C367        C368   1.409       .  A
C367        C370   1.452       .  S
C368        C371   1.453       .  S
C369        N376   1.157       .  T
C370        N375   1.157       .  T
C371        N373   1.158       .  T
C372        N374   1.157       .  T
C377        C378   1.411       .  A
C377        C382   1.416       .  A
C378        C379   1.405       .  A
C378        C383   1.446       .  S
C379        C380   1.414       .  A
C379        C386   1.455       .  S
C380        C381   1.419       .  A
C381        C382   1.429       .  A
C381        C384   1.447       .  S
C382        C385   1.446       .  S
C383        N390   1.155       .  T
C384        N389   1.157       .  T
C385        N387   1.157       .  T
C386        N388   1.157       .  T
C391        C392   1.425   1_556  A
C391        C396   1.425       .  A
C392        C393   1.422       .  A
C392        C397   1.451       .  S
C393        C394   1.418       .  A
C393        C400   1.451       .  S
C394        C395   1.417       .  A
C395        C396   1.415   1_554  A
C395        C398   1.447       .  S
C396        C399   1.454       .  S
C397        N404   1.158       .  T
C398        N403   1.155   1_554  T
C399        N401   1.158       .  T
C400        N402   1.158       .  T
C405        C406   1.428       .  A
C405        C410   1.419       .  A
C406        C407   1.418       .  A
C406        C411   1.451       .  S
C407        C408   1.412       .  A
C407        C414   1.452       .  S
C408        C409   1.423       .  A
C409        C410   1.421       .  A
C409        C412   1.452   1_556  S
C410        C413   1.451       .  S
C411        N418   1.156       .  T
C412        N417   1.157       .  T
C413       N1951   1.158       .  T
C414        N416   1.158       .  T
N415       C1949   1.157       .  T
C419        C420   1.407   1_455  A
C419        C424   1.414       .  A
C420       C1957   1.397   1_556  A
C420       C1961   1.449   1_556  S
C421        C422   1.415       .  A
C421       C1956   1.398   1_554  A
C421        C428   1.453       .  S
C422       C1959   1.411   1_554  A
C423        C424   1.400       .  A
C423       C1958   1.411   1_456  A
C423        C426   1.454       .  S
C424        C427   1.452       .  S
C425       C1956   1.449   1_554  S
C425        N432   1.155       .  T
C426        N431   1.157       .  T
C427        N429   1.158       .  T
C428        N430   1.158       .  T
C433        C434   1.405       .  A
C433       C1974   1.414       .  A
C434       C1971   1.408       .  A
C434        C439   1.449       .  S
C435        C436   1.420   1_655  A
C435       C1970   1.409       .  A
C435        C442   1.453       .  S
C436        C437   1.414       .  A
C437        C438   1.416       .  A
C437        C440   1.450       .  S
C438       C1969   1.413   1_455  A
C438        C441   1.450       .  S
C439        N446   1.155       .  T
C440        N445   1.158       .  T
C441        N443   1.157       .  T
C442        N444   1.157       .  T
C447        C448   1.414       .  A
C447        C452   1.412       .  A
C448        C449   1.420       .  A
C448        C453   1.450       .  S
C449        C450   1.422       .  A
C449        C456   1.451       .  S
C450        C451   1.429       .  A
C451        C452   1.422       .  A
C451        C454   1.451       .  S
C452        C455   1.449       .  S
C453        N460   1.158       .  T
C454        N459   1.158       .  T
C455       N1993   1.156   1_455  T
C456        N458   1.157       .  T
N457       C1991   1.157       .  T
C461        C462   1.405       .  A
C461       C2002   1.400       .  A
C462        C463   1.398       .  A
C462        C467   1.441       .  S
C463       C2000   1.401       .  A
C463        C470   1.449       .  S
C464        C465   1.418       .  A
C464       C1999   1.402       .  A
C465        C466   1.401       .  A
C465        C468   1.450       .  S
C466       C1997   1.400       .  A
C466        C469   1.451       .  S
C467        N474   1.154       .  T
C468        N473   1.157   1_655  T
C469        N471   1.157       .  T
C470        N472   1.157       .  T
C475        C476   1.425       .  A
C475        C480   1.415       .  A
C476        C477   1.420       .  A
C476        C481   1.452       .  S
C477        C478   1.416       .  A
C477        C484   1.452       .  S
C478        C479   1.426       .  A
C479        C480   1.420       .  A
C479        C482   1.452       .  S
C480       C1251   1.452   1_545  S
C481        N488   1.158       .  T
C482        N487   1.158       .  T
C483       C1248   1.451       .  S
C483        N485   1.157       .  T
C484        N486   1.157       .  T
C489        C490   1.419       .  A
C489        C494   1.432       .  A
C490        C491   1.409       .  A
C490        C495   1.449       .  S
C491        C492   1.407       .  A
C491        C498   1.447       .  S
C492        C493   1.406       .  A
C493        C494   1.418       .  A
C493        C496   1.452       .  S
C494        C497   1.451       .  S
C495        N502   1.157       .  T
C496        N501   1.157       .  T
C497        N499   1.157       .  T
C498        N500   1.155       .  T
C503        C504   1.424       .  A
C503        C508   1.424       .  A
C504        C505   1.425       .  A
C504        C509   1.451       .  S
C505        C506   1.425       .  A
C505        C512   1.452       .  S
C506        C507   1.427       .  A
C507        C508   1.421       .  A
C507        C510   1.454   1_556  S
C508        C511   1.452   1_545  S
C509        N516   1.157       .  T
C510        N515   1.158       .  T
C511       N1281   1.157       .  T
C512        N514   1.157       .  T
N513       C1279   1.156       .  T
C517        C522   1.411       .  A
C517       C1286   1.398   1_556  A
C518        C519   1.394   1_556  A
C518       C1285   1.400       .  A
C518        C523   1.447   1_556  S
C519        C520   1.403       .  A
C519        C526   1.444       .  S
C520       C1289   1.400   1_554  A
C521        C522   1.399       .  A
C521       C1288   1.413   1_556  A
C521        C524   1.453       .  S
C522        C525   1.454       .  S
C523        N530   1.156       .  T
C524        N529   1.157       .  T
C525        N527   1.157       .  T
C526        N528   1.156       .  T
C531        C532   1.423   1_556  A
C531        C536   1.427       .  A
C532        C533   1.424       .  A
C532        C537   1.450       .  S
C533        C534   1.421       .  A
C533        C540   1.451       .  S
C534        C535   1.418       .  A
C535        C536   1.420   1_554  A
C535        C538   1.448   1_455  S
C536        C539   1.454       .  S
C537        N544   1.158       .  T
C538       N2079   1.157   1_554  T
C539        N541   1.157       .  T
C540        N542   1.156       .  T
N543       C2074   1.155       .  T
C545        C546   1.423       .  A
C545        C550   1.416       .  A
C546        C547   1.413       .  A
C546        C551   1.454       .  S
C547        C548   1.411       .  A
C547        C554   1.447       .  S
C548        C549   1.420       .  A
C549        C550   1.423       .  A
C549        C552   1.450       .  S
C550        C553   1.449       .  S
C551        N558   1.157       .  T
C552        N557   1.157       .  T
C553        N555   1.157       .  T
C554        N556   1.156       .  T
C559        C560   1.416       .  A
C559        C564   1.406       .  A
C560        C561   1.424       .  A
C560        C565   1.448   1_545  S
C561        C562   1.416       .  A
C561        C568   1.448       .  S
C562        C563   1.418       .  A
C563        C564   1.416       .  A
C563        C566   1.445       .  S
C564        C567   1.447       .  S
C565        N572   1.157       .  T
C566        N571   1.156       .  T
C567        N569   1.156       .  T
C568        N570   1.157       .  T
C573        C578   1.412       .  A
C573       C1342   1.420       .  A
C574        C575   1.404       .  A
C574       C1341   1.420   1_545  A
C574        C579   1.452       .  S
C575        C576   1.400       .  A
C575        C582   1.449       .  S
C576       C1345   1.412   1_545  A
C577        C578   1.413       .  A
C577       C1344   1.413       .  A
C577        C580   1.451       .  S
C578        C581   1.450       .  S
C579        N586   1.157       .  T
C580        N585   1.157       .  T
C581        N583   1.158       .  T
C582        N584   1.156       .  T
C587        C588   1.424       .  A
C587        C592   1.427       .  A
C588        C589   1.419       .  A
C588        C593   1.450       .  S
C589        C590   1.413       .  A
C589        C596   1.451       .  S
C590        C591   1.408       .  A
C591        C592   1.416       .  A
C591        C594   1.447       .  S
C592        C595   1.452       .  S
C593        N600   1.157       .  T
C594        N599   1.155       .  T
C595        N597   1.158       .  T
C596        N598   1.158       .  T
C601        C602   1.410       .  A
C601       C1374   1.404       .  A
C602        C603   1.400       .  A
C602        C607   1.452       .  S
C603       C1372   1.405       .  A
C603        C610   1.450       .  S
C604        C605   1.410   1_565  A
C604       C1371   1.407       .  A
C605        C606   1.393   1_545  A
C605        C608   1.453       .  S
C606       C1369   1.400       .  A
C606        C609   1.448   1_565  S
C607        N614   1.157       .  T
C608        N613   1.158       .  T
C609        N611   1.155       .  T
C610        N612   1.157       .  T
C615        C616   1.411       .  A
C615        C620   1.416       .  A
C616        C617   1.418       .  A
C616        C621   1.447       .  S
C617        C618   1.432       .  A
C617        C624   1.454   1_556  S
C618        C619   1.425       .  A
C619        C620   1.425       .  A
C619        C622   1.449       .  S
C620        C623   1.450       .  S
C621        N628   1.155       .  T
C622        N627   1.158       .  T
C623        N625   1.157       .  T
C624        N626   1.158       .  T
C629        C630   1.415   1_554  A
C629        C634   1.416       .  A
C630        C631   1.402       .  A
C630        C635   1.446       .  S
C631        C632   1.405       .  A
C631        C638   1.454       .  S
C632        C633   1.406       .  A
C633        C634   1.400   1_556  A
C633        C636   1.450       .  S
C634        C637   1.453       .  S
C635        N642   1.154       .  T
C636        N641   1.155       .  T
C637        N639   1.158       .  T
C638        N640   1.158       .  T
C643        C644   1.417       .  A
C643        C648   1.411       .  A
C644        C645   1.413       .  A
C644        C649   1.451       .  S
C645        C646   1.409       .  A
C645        C652   1.451       .  S
C646        C647   1.412       .  A
C647        C648   1.415       .  A
C647        C650   1.450       .  S
C648        C651   1.450       .  S
C649        N656   1.157       .  T
C650        N655   1.157       .  T
C651        N653   1.157       .  T
C652        N654   1.157       .  T
C657        C658   1.410       .  A
C657        C662   1.416       .  A
C658        C659   1.410       .  A
C658        C663   1.444       .  S
C659        C660   1.412       .  A
C659        C666   1.450       .  S
C660        C661   1.415       .  A
C661        C662   1.425       .  A
C661        C664   1.447       .  S
C662        C665   1.445       .  S
C663        N670   1.155       .  T
C664        N669   1.157       .  T
C665        N667   1.156       .  T
C666        N668   1.156       .  T
C671        C672   1.418   1_556  A
C671        C676   1.425       .  A
C672        C673   1.418       .  A
C672        C677   1.453       .  S
C673        C674   1.424       .  A
C673        C680   1.452       .  S
C674        C675   1.414       .  A
C675        C676   1.414   1_554  A
C675       C1446   1.449       .  S
C676        C679   1.454       .  S
C677        N684   1.158       .  T
C678       C1443   1.449       .  S
C678        N683   1.157   1_565  T
C679        N681   1.158       .  T
C680        N682   1.158       .  T
C685        C686   1.418       .  A
C685        C690   1.419       .  A
C686        C687   1.413       .  A
C686        C691   1.446       .  S
C687        C688   1.422       .  A
C687        C694   1.455       .  S
C688        C689   1.419       .  A
C689        C690   1.421       .  A
C689        C692   1.450       .  S
C690        C693   1.450       .  S
C691        N698   1.155       .  T
C692        N697   1.158       .  T
C693        N695   1.156       .  T
C694        N696   1.157       .  T
C699        C700   1.417       .  A
C699        C704   1.419       .  A
C700        C701   1.401       .  A
C700        C705   1.447       .  S
C701        C702   1.406       .  A
C701        C708   1.454       .  S
C702        C703   1.406       .  A
C703        C704   1.403       .  A
C703        C706   1.452       .  S
C704        C707   1.449       .  S
C705        N712   1.154       .  T
C706        N711   1.156       .  T
C707        N709   1.157       .  T
C708        N710   1.158       .  T
C713        C714   1.420       .  A
C713        C718   1.423       .  A
C714        C715   1.404       .  A
C714        C719   1.456       .  S
C715        C716   1.423       .  A
C715        C722   1.459       .  S
C716        C717   1.414       .  A
C717        C718   1.429       .  A
C717        C720   1.448       .  S
C718        C721   1.448       .  S
C719        N726   1.158       .  T
C720        N725   1.157       .  T
C721        N723   1.157       .  T
C722        N724   1.158       .  T
C727        C728   1.414       .  A
C727        C732   1.407       .  A
C728        C729   1.415       .  A
C728        C733   1.451       .  S
C729        C730   1.413       .  A
C729        C736   1.450       .  S
C730        C731   1.418       .  A
C731        C732   1.409       .  A
C731        C734   1.452       .  S
C732        C735   1.450       .  S
C733        N740   1.158       .  T
C734        N739   1.158       .  T
C735        N737   1.156       .  T
C736        N738   1.157       .  T
C741        C742   1.408       .  A
C741        C746   1.412       .  A
C742        C743   1.417       .  A
C742        C747   1.450       .  S
C743        C744   1.423       .  A
C743        C750   1.451       .  S
C744        C745   1.411       .  A
C745        C746   1.414       .  A
C745        C748   1.448       .  S
C746        C749   1.449       .  S
C747        N754   1.157       .  T
C748        N753   1.157       .  T
C749        N751   1.157       .  T
C750        N752   1.157       .  T
C755        C756   1.428       .  A
C755        C760   1.421       .  A
C756        C757   1.421       .  A
C756        C761   1.453       .  S
C757        C758   1.421       .  A
C757        C764   1.453       .  S
C758        C759   1.424       .  A
C759        C760   1.417       .  A
C759       C2298   1.449       .  S
C760        C763   1.454       .  S
C761        N768   1.158       .  T
C762       C2295   1.452       .  S
C762        N767   1.158   1_655  T
C763        N765   1.157       .  T
C764        N766   1.157       .  T
Fe769       O785   2.075       .  S
Fe769       O775   2.021       .  S
Fe769       O782   2.035       .  S
Fe769       O774   2.116       .  S
Fe769       O780   1.936       .  S
Fe770       O773   2.109       .  S
Fe770       O777   2.114       .  S
Fe770       O781   2.123       .  S
Fe770       O786   2.115       .  S
Fe770       O780   1.930       .  S
Fe771       O789   2.055       .  S
Fe771       O776   2.068       .  S
Fe771       O783   2.082       .  S
Fe771       O772   2.050       .  S
Fe771       O780   1.917       .  S
O772        C779   1.267       .  A
O773        C787   1.276       .  A
O774        C779   1.276       .  A
O775        C778   1.256       .  A
O776        C788   1.273       .  A
O777        C790   1.279       .  A
C778        O783   1.272       .  A
C778       C1467   1.485       .  S
C779       C1481   1.494       .  S
O781        C784   1.283       .  A
O782        C784   1.269       .  A
C784       C1498   1.492       .  S
O785        C790   1.269       .  A
O786        C788   1.284       .  A
C787        O789   1.269       .  A
C787       C1523   1.509       .  S
C788       C1509   1.495       .  S
C790       C1453   1.521       .  S
Fe791       O807   2.035       .  S
Fe791       O797   2.037       .  S
Fe791       O804   2.058       .  S
Fe791       O796   2.067       .  S
Fe791       O802   1.941       .  S
Fe792       O795   2.053       .  S
Fe792       O799   2.132       .  S
Fe792       O803   2.081       .  S
Fe792       O808   2.150       .  S
Fe792       O802   1.950       .  S
Fe793       O811   2.115       .  S
Fe793       O798   2.033       .  S
Fe793       O805   2.036       .  S
Fe793       O794   2.100       .  S
Fe793       O802   1.943       .  S
O794        C801   1.275       .  A
O795        C809   1.264       .  A
O796        C801   1.269       .  A
O797        C800   1.266       .  A
O798        C810   1.264       .  A
O799        C812   1.282       .  A
C800        O805   1.265       .  A
C800       C1400   1.441       .  S
C801       C1411   1.493       .  S
O803        C806   1.274       .  A
O804        C806   1.268       .  A
C806       C1495   1.478       .  S
O807        C812   1.264       .  A
O808        C810   1.288       .  A
C809        O811   1.277       .  A
C809       C1439   1.510       .  S
C810       C1425   1.491       .  S
C812       C1383   1.517       .  S
Fe813       O819   2.039       .  S
Fe813       O826   2.046       .  S
Fe813       O818   2.085       .  S
Fe813       O824   1.951       .  S
Fe814       O817   2.047       .  S
Fe814       O821   2.125       .  S
Fe814       O825   2.080       .  S
Fe814       O830   2.151       .  S
Fe814       O824   1.957       .  S
Fe815       O833   2.118       .  S
Fe815       O820   2.021       .  S
Fe815       O827   2.032       .  S
Fe815       O816   2.113       .  S
Fe815       O824   1.936       .  S
O816        C823   1.277       .  A
O817        C831   1.261       .  A
O818        C823   1.274       .  A
O819        C822   1.265       .  A
O820        C832   1.263       .  A
C822        O827   1.262       .  A
C822       C1372   1.441       .  S
C823       C1327   1.505       .  S
O825        C828   1.271       .  A
O826        C828   1.265       .  A
C828       C1344   1.474       .  S
O829        C834   1.268       .  A
O830        C832   1.287       .  A
C831        O833   1.274       .  A
C831       C1313   1.518       .  S
C832       C1484   1.496       .  S
C834       C1358   1.493       .  S
Fe835       O841   2.001   1_565  S
Fe835       O848   2.026       .  S
Fe835       O840   2.077       .  S
Fe835       O846   1.920       .  S
Fe836       O839   2.059       .  S
Fe836       O843   2.074       .  S
Fe836       O847   2.099       .  S
Fe836       O852   2.084       .  S
Fe836       O846   1.944       .  S
Fe837       O855   2.101       .  S
Fe837       O842   2.099       .  S
Fe837       O849   2.066       .  S
Fe837       O838   2.072       .  S
Fe837       O846   1.910       .  S
O838        C845   1.274       .  A
O839        C853   1.257       .  A
O840        C845   1.272       .  A
O841        C844   1.257   1_545  A
O842        C854   1.288       .  A
C844        O849   1.274       .  A
C844       C1285   1.449   1_565  S
C845       C1428   1.493       .  S
O847        C850   1.262       .  A
O848        C850   1.249       .  A
C850       C1341   1.482       .  S
O851        C856   1.276       .  A
O852        C854   1.291       .  A
C853        O855   1.267       .  A
C853       C1299   1.517       .  S
C854       C1260   1.494       .  S
C856       C1271   1.523       .  S
Fe857      O2409   2.052       .  S
Fe857       O863   2.056       .  S
Fe857       O870   2.062       .  S
Fe857       O862   2.068       .  S
Fe857       O868   1.954       .  S
Fe858       O861   2.044       .  S
Fe858       O865   2.141       .  S
Fe858       O869   2.072       .  S
Fe858       O874   2.159       .  S
Fe858       O868   1.951       .  S
Fe859       O877   2.120       .  S
Fe859       O864   2.028       .  S
Fe859       O871   2.036       .  S
Fe859       O860   2.118       .  S
Fe859       O868   1.940       .  S
O860        C867   1.282       .  A
O861        C875   1.263       .  A
O862        C867   1.273       .  A
O863        C866   1.266       .  A
O864        C876   1.263       .  A
O865       C2414   1.287       .  A
C866        O871   1.261       .  A
C866       C1229   1.455       .  S
C867       C1512   1.506       .  S
O869        C872   1.271       .  A
O870        C872   1.266       .  A
C872       C1201   1.475       .  S
O873      Fe2393   2.037   1_455  S
O873        C878   1.267       .  A
O874        C876   1.289       .  A
C875        O877   1.280       .  A
C875       C1246   1.512       .  S
C876       C1330   1.506       .  S
C878       O2401   1.286   1_455  A
C878       C1215   1.502       .  S
Fe879      O2431   2.061   1_455  S
Fe879       O885   2.026       .  S
Fe879       O892   2.025       .  S
Fe879       O884   2.069       .  S
Fe879       O890   1.967       .  S
Fe880       O883   2.083       .  S
Fe880       O887   2.094       .  S
Fe880       O891   2.102       .  S
Fe880       O896   2.114       .  S
Fe880       O890   1.977       .  S
Fe881       O899   2.067       .  S
Fe881       O886   2.057       .  S
Fe881       O893   2.051       .  S
Fe881       O882   2.061       .  S
Fe881       O890   1.968       .  S
O882        C889   1.271       .  A
O883        C897   1.269       .  A
O884        C889   1.270       .  A
O885        C888   1.259       .  A
O886        C898   1.272       .  A
O887       C2436   1.280   1_455  A
C888        O893   1.264       .  A
C888       C1187   1.454       .  S
C889       C1257   1.496       .  S
O891        C894   1.270       .  A
O892        C894   1.257       .  A
C894       C1204   1.505       .  S
O895      Fe2415   2.104       .  S
O895        C900   1.280       .  A
O896        C898   1.283       .  A
C897        O899   1.264       .  A
C897       C1159   1.514       .  S
C898       C1414   1.490       .  S
C900       O2423   1.277       .  A
C900       C1173   1.525       .  S
Fe901       O917   2.032       .  S
Fe901       O907   2.036       .  S
Fe901       O914   2.063       .  S
Fe901       O906   2.046       .  S
Fe901       O912   1.957       .  S
Fe902       O905   2.110       .  S
Fe902       O909   2.055       .  S
Fe902       O913   2.113       .  S
Fe902       O918   2.053       .  S
Fe902       O912   1.946       .  S
Fe903       O921   2.049       .  S
Fe903       O908   2.151       .  S
Fe903       O915   2.133       .  S
Fe903       O904   2.081       .  S
Fe903       O912   1.949       .  S
O904        C911   1.271       .  A
O905        C919   1.275       .  A
O906        C911   1.263       .  A
O907        C910   1.266       .  A
O908        C920   1.289       .  A
O909        C922   1.266       .  A
C910        O915   1.285       .  A
C910       C1316   1.504       .  S
C911       C1134   1.477       .  S
O913        C916   1.279       .  A
O914        C916   1.271       .  A
C916       C1117   1.491       .  S
O917        C922   1.263       .  A
O918        C920   1.271       .  A
C919        O921   1.261       .  A
C919       C1218   1.519       .  S
C920       C1145   1.501       .  S
C922       C1470   1.469       .  S
Fe923       O939   2.022       .  S
Fe923       O929   2.091       .  S
Fe923       O936   2.085       .  S
Fe923       O928   2.027       .  S
Fe923       O934   1.947       .  S
Fe924       O927   2.085       .  S
Fe924       O931   2.039       .  S
Fe924       O935   2.094       .  S
Fe924       O940   2.057       .  S
Fe924       O934   1.932       .  S
Fe925       O943   2.084       .  S
Fe925       O930   2.124       .  S
Fe925       O937   2.107       .  S
Fe925       O926   2.108       .  S
Fe925       O934   1.950       .  S
O926        C933   1.272       .  A
O927        C941   1.270       .  A
O928        C933   1.258       .  A
O929        C932   1.277       .  A
O930        C942   1.287       .  A
O931        C944   1.264       .  A
C932        O937   1.282       .  A
C932       C1162   1.519       .  S
C933       C1131   1.489       .  S
O935        C938   1.276       .  A
O936        C938   1.271       .  A
C938       C1092   1.504       .  S
O939        C944   1.261       .  A
O940        C942   1.271       .  A
C941        O943   1.268       .  A
C941       C1274   1.528   1_554  S
C942       C1103   1.507       .  S
C944       C1397   1.461       .  S
Fe945       O961   2.033       .  S
Fe945       O958   2.054       .  S
Fe945       O950   2.052       .  S
Fe945       O956   1.958       .  S
Fe946       O949   2.101       .  S
Fe946       O953   2.029       .  S
Fe946       O957   2.101       .  S
Fe946       O962   2.024       .  S
Fe946       O956   1.962       .  S
Fe947       O965   2.057       .  S
Fe947       O952   2.136       .  S
Fe947       O959   2.132       .  S
Fe947       O948   2.074       .  S
Fe947       O956   1.958       .  S
O948        C955   1.266       .  A
O949        C963   1.272       .  A
O950        C955   1.263       .  A
O951        C954   1.268       .  A
O952        C964   1.288       .  A
O953        C966   1.261       .  A
C954       C1243   1.509       .  S
C955       C1078   1.483       .  S
O957        C960   1.276       .  A
O958        C960   1.268       .  A
C960       C1064   1.489       .  S
O961        C966   1.262       .  A
O962        C964   1.267       .  A
C963        O965   1.263       .  A
C963       C1456   1.510       .  S
C964       C1120   1.486       .  S
C966       C1369   1.441       .  S
Fe967       O983   2.040       .  S
Fe967       O980   2.083       .  S
Fe967       O972   2.045       .  S
Fe967       O978   1.975       .  S
Fe968       O971   2.082       .  S
Fe968       O975   2.030       .  S
Fe968       O979   2.075       .  S
Fe968       O984   2.033       .  S
Fe968       O978   1.942       .  S
Fe969       O987   2.083       .  S
Fe969       O974   2.146       .  S
Fe969       O981   2.130       .  S
Fe969       O970   2.092       .  S
Fe969       O978   1.956       .  S
O970        C977   1.270       .  A
O971        C985   1.267       .  A
O972        C977   1.261       .  A
O973        C976   1.267       .  A
O974        C986   1.290       .  A
O975        C988   1.262       .  A
C976       C1442   1.504       .  S
C977       C1075   1.491       .  S
O979        C982   1.276       .  A
O980        C982   1.274       .  A
C982       C1106   1.502       .  S
O983        C988   1.260       .  A
O984        C986   1.268       .  A
C985        O987   1.267       .  A
C985       C1176   1.530   1_554  S
C986       C1047   1.498       .  S
C988       C1288   1.476       .  S
Fe989      O1005   2.015       .  S
Fe989      O2531   2.092       .  S
Fe989      O1002   2.090       .  S
Fe989       O994   2.030       .  S
Fe989      O1000   1.955       .  S
Fe990       O993   2.088       .  S
Fe990       O997   2.053       .  S
Fe990      O1001   2.110       .  S
Fe990      O1006   2.067       .  S
Fe990      O1000   1.943       .  S
Fe991      O1009   2.084       .  S
Fe991       O996   2.106       .  S
Fe991      O1003   2.094       .  S
Fe991       O992   2.115       .  S
Fe991      O1000   1.965       .  S
O992        C999   1.277       .  A
O993       C1007   1.273       .  A
O994        C999   1.262       .  A
O995      Fe2525   2.081   1_455  S
O995        C998   1.269       .  A
O996       C1008   1.284       .  A
O997       C1010   1.268       .  A
C998       O2539   1.274   1_455  A
C998       C1302   1.511       .  S
C999       C1033   1.488       .  S
O1001      C1004   1.280       .  A
O1002      C1004   1.272       .  A
O1003      C2534   1.276       .  A
C1004      C1050   1.518       .  S
O1005      C1010   1.262       .  A
O1006      C1008   1.273       .  A
C1007      O1009   1.269       .  A
C1007      C1386   1.521   1_554  S
C1008      C1089   1.490       .  S
C1010      C1190   1.469       .  S
Fe1011     O1027   2.013       .  S
Fe1011     O2553   2.109   1_455  S
Fe1011     O1024   2.117       .  S
Fe1011     O1016   2.034       .  S
Fe1011     O1022   1.930       .  S
Fe1012     O1015   2.072       .  S
Fe1012     O1019   2.082       .  S
Fe1012     O1023   2.058       .  S
Fe1012     O1028   2.091       .  S
Fe1012     O1022   1.913       .  S
Fe1013     O1031   2.080       .  S
Fe1013     O1018   2.080       .  S
Fe1013     O1025   2.061       .  S
Fe1013     O1014   2.094       .  S
Fe1013     O1022   1.953       .  S
O1014      C1021   1.267       .  A
O1015      C1029   1.266       .  A
O1016      C1021   1.260       .  A
O1017     Fe2547   2.109       .  S
O1017      C1020   1.283       .  A
O1018      C1030   1.282       .  A
O1019      C1032   1.272       .  A
C1020      O2561   1.277       .  A
C1020      C1526   1.515       .  S
C1021      C1036   1.478       .  S
O1023      C1026   1.272       .  A
O1024      C1026   1.281       .  A
O1025      C2556   1.274       .  A
C1026      C1148   1.501       .  S
O1027      C1032   1.256       .  A
O1028      C1030   1.281       .  A
C1029      O1031   1.266       .  A
C1029      C1355   1.517       .  S
C1030      C1061   1.483       .  S
C1032      C1232   1.460   1_455  S
C1033      C2570   1.420       .  A
C1033      C1038   1.413       .  A
C1034      C2569   1.419       .  A
C1034      C1035   1.403       .  A
C1034      C1039   1.454       .  S
C1035      C1036   1.406       .  A
C1035      C1042   1.452       .  S
C1036      C2573   1.415       .  A
C1037      C2572   1.415       .  A
C1037      C1038   1.416       .  A
C1037      C1040   1.451       .  S
C1038      C1041   1.450       .  S
C1039      N1046   1.157       .  T
C1040      N1045   1.157       .  T
C1041      N1043   1.158       .  T
C1042      N1044   1.157       .  T
C1047      C1048   1.411       .  A
C1047      C1052   1.410       .  A
C1048      C1049   1.420       .  A
C1048      C1053   1.451       .  S
C1049      C1050   1.414       .  A
C1049      C1056   1.443       .  S
C1050      C1051   1.425       .  A
C1051      C1052   1.423       .  A
C1051      C1054   1.449       .  S
C1052      C1055   1.449       .  S
C1053      N1060   1.157       .  T
C1054      N1059   1.157       .  T
C1055      N1057   1.157       .  T
C1056      N1058   1.155       .  T
C1061      C1062   1.410       .  A
C1061      C1066   1.406       .  A
C1062      C1063   1.410       .  A
C1062      C1067   1.444       .  S
C1063      C1064   1.408       .  A
C1063      C1070   1.448       .  S
C1064      C1065   1.421       .  A
C1065      C1066   1.415       .  A
C1065      C1068   1.450       .  S
C1066      C1069   1.450       .  S
C1067      N1074   1.155       .  T
C1068      N1073   1.157       .  T
C1069      N1071   1.157       .  T
C1070      N1072   1.156       .  T
C1075      C1080   1.409       .  A
C1076      C1077   1.412       .  A
C1076      C1081   1.451       .  S
C1077      C1078   1.411       .  A
C1077      C1084   1.449       .  S
C1079      C1080   1.414       .  A
C1079      C1082   1.448       .  S
C1080      C1083   1.451       .  S
C1081      N1088   1.157       .  T
C1082      N1087   1.157       .  T
C1083      N1085   1.157       .  T
C1084      N1086   1.157       .  T
C1089      C1090   1.411       .  A
C1089      C1094   1.407       .  A
C1090      C1091   1.416       .  A
C1090      C1095   1.449       .  S
C1091      C1092   1.416       .  A
C1091      C1098   1.449       .  S
C1092      C1093   1.415       .  A
C1093      C1094   1.419       .  A
C1093      C1096   1.447       .  S
C1094      C1097   1.445       .  S
C1095      N1102   1.157       .  T
C1096      N1101   1.157       .  T
C1097      N1099   1.157       .  T
C1098      N1100   1.157       .  T
C1103      C1104   1.423       .  A
C1103      C1108   1.419       .  A
C1104      C1105   1.402       .  A
C1104      C1109   1.451       .  S
C1105      C1106   1.409       .  A
C1105      C1112   1.455       .  S
C1106      C1107   1.418       .  A
C1107      C1108   1.429       .  A
C1107      C1110   1.447       .  S
C1108      C1111   1.448       .  S
C1109      N1116   1.156       .  T
C1110      N1115   1.158       .  T
C1111      N1113   1.157       .  T
C1112      N1114   1.155       .  T
C1117      C1118   1.415       .  A
C1117      C1122   1.408       .  A
C1118      C1119   1.414       .  A
C1118      C1123   1.448       .  S
C1119      C1120   1.408       .  A
C1119      C1126   1.448       .  S
C1120      C1121   1.415       .  A
C1121      C1122   1.416       .  A
C1121      C1124   1.448       .  S
C1122      C1125   1.448       .  S
C1123      N1130   1.156       .  T
C1124      N1129   1.157       .  T
C1125      N1127   1.157       .  T
C1126      N1128   1.156       .  T
C1131      C1132   1.412       .  A
C1131      C1136   1.420       .  A
C1132      C1133   1.414       .  A
C1132      C1137   1.450       .  S
C1133      C1134   1.414       .  A
C1133      C1140   1.451       .  S
C1134      C1135   1.406       .  A
C1135      C1136   1.407       .  A
C1135      C1138   1.451       .  S
C1136      C1139   1.453       .  S
C1137      N1144   1.157       .  T
C1138      N1143   1.156       .  T
C1139      N1141   1.157       .  T
C1140      N1142   1.157       .  T
C1145      C1146   1.406       .  A
C1145      C1150   1.416       .  A
C1146      C1147   1.402       .  A
C1146      C1151   1.442       .  S
C1147      C1148   1.414       .  A
C1147      C1154   1.454       .  S
C1148      C1149   1.418       .  A
C1149      C1150   1.430       .  A
C1149      C1152   1.447       .  S
C1150      C1153   1.444       .  S
C1151      N1158   1.154       .  T
C1152      N1157   1.157       .  T
C1153      N1155   1.157       .  T
C1154      N1156   1.157       .  T
C1159      C1160   1.421   1_556  A
C1159      C1164   1.416       .  A
C1160      C1161   1.423       .  A
C1160      C1165   1.451       .  S
C1161      C1162   1.420       .  A
C1161      C1168   1.450       .  S
C1162      C1163   1.418       .  A
C1163      C1164   1.418   1_554  A
C1163      C1166   1.440       .  S
C1164      C1167   1.453       .  S
C1165      N1172   1.158       .  T
C1166      N1171   1.153   1_554  T
C1167      N1169   1.157       .  T
C1168      N1170   1.157       .  T
C1173      C1174   1.419       .  A
C1173      C1178   1.421       .  A
C1174      C1175   1.423       .  A
C1174      C1179   1.450       .  S
C1175      C1176   1.425       .  A
C1175      C1182   1.451       .  S
C1176      C1177   1.427   1_556  A
C1177      C1178   1.422   1_554  A
C1177      C1180   1.452       .  S
C1178      C1181   1.452       .  S
C1179      N1186   1.158       .  T
C1180      N1185   1.158       .  T
C1181      N2719   1.157       .  T
C1182      N1184   1.156       .  T
N1183      C2717   1.157       .  T
C1187      C1188   1.402   1_455  A
C1187      C1192   1.407       .  A
C1188      C2725   1.402   1_556  A
C1188      C2729   1.447   1_556  S
C1189      C2724   1.398   1_554  A
C1189      C1190   1.419       .  A
C1189      C1196   1.454       .  S
C1190      C2727   1.415       .  A
C1191      C2726   1.415   1_456  A
C1191      C1192   1.401       .  A
C1191      C1194   1.452       .  S
C1192      C1195   1.453       .  S
C1193      C2724   1.451       .  S
C1193      N1200   1.156       .  T
C1194      N1199   1.157       .  T
C1195      N1197   1.157       .  T
C1196      N1198   1.158       .  T
C1201      C1202   1.406       .  A
C1201      C2742   1.413       .  A
C1202      C2739   1.405       .  A
C1202      C1207   1.451       .  S
C1203      C2738   1.407       .  A
C1203      C1204   1.426   1_655  A
C1203      C1210   1.452       .  S
C1204      C1205   1.418       .  A
C1205      C1206   1.421       .  A
C1205      C1208   1.450       .  S
C1206      C2737   1.414   1_455  A
C1206      C1209   1.450       .  S
C1207      N1214   1.157       .  T
C1208      N1213   1.157       .  T
C1209      N1211   1.158       .  T
C1210      N1212   1.157       .  T
C1215      C1216   1.418       .  A
C1215      C1220   1.409       .  A
C1216      C1217   1.420       .  A
C1216      C1221   1.452       .  S
C1217      C1218   1.420       .  A
C1217      C1224   1.451       .  S
C1218      C1219   1.430       .  A
C1219      C1220   1.417       .  A
C1219      C1222   1.452       .  S
C1220      C1223   1.451       .  S
C1221      N1228   1.158       .  T
C1222      N1227   1.158       .  T
C1223      N2761   1.156   1_455  T
C1224      N1226   1.157       .  T
N1225      C2759   1.156       .  T
C1229      C1230   1.408       .  A
C1229      C2770   1.401       .  A
C1230      C1231   1.397       .  A
C1230      C1235   1.443       .  S
C1231      C2768   1.401       .  A
C1231      C1238   1.451       .  S
C1232      C2767   1.403       .  A
C1232      C1233   1.417       .  A
C1233      C1234   1.400       .  A
C1233      C1236   1.448   1_655  S
C1234      C2765   1.400       .  A
C1234      C1237   1.451       .  S
C1235      N1242   1.155       .  T
C1236      N1241   1.157       .  T
C1237      N1239   1.157       .  T
C1238      N1240   1.157       .  T
C1243      C1244   1.423       .  A
C1243      C1248   1.416       .  A
C1244      C1245   1.416       .  A
C1244      C1249   1.451       .  S
C1245      C1246   1.414       .  A
C1245      C1252   1.452       .  S
C1246      C1247   1.426       .  A
C1247      C1248   1.421       .  A
C1247      C1250   1.453       .  S
C1249      N1256   1.157       .  T
C1250      N1255   1.158       .  T
C1251      N1253   1.157       .  T
C1252      N1254   1.157       .  T
C1257      C1258   1.413       .  A
C1257      C1262   1.421       .  A
C1258      C1259   1.405       .  A
C1258      C1263   1.455       .  S
C1259      C1260   1.416       .  A
C1259      C1266   1.447       .  S
C1260      C1261   1.414       .  A
C1261      C1262   1.420       .  A
C1261      C1264   1.451       .  S
C1262      C1265   1.450       .  S
C1263      N1270   1.157       .  T
C1264      N1269   1.157       .  T
C1265      N1267   1.158       .  T
C1266      N1268   1.155       .  T
C1271      C1272   1.422       .  A
C1271      C1276   1.419       .  A
C1272      C1273   1.424       .  A
C1272      C1277   1.451       .  S
C1273      C1274   1.425       .  A
C1273      C1280   1.452       .  S
C1274      C1275   1.428   1_556  A
C1275      C1276   1.416   1_554  A
C1275      C1278   1.454       .  S
C1276      C1279   1.450       .  S
C1277      N1284   1.157       .  T
C1278      N1283   1.158       .  T
C1280      N1282   1.158       .  T
C1285      C1290   1.418       .  A
C1286      C1287   1.398       .  A
C1286      C1291   1.455       .  S
C1287      C1288   1.425       .  A
C1287      C1294   1.449       .  S
C1289      C1290   1.398       .  A
C1289      C1292   1.452       .  S
C1290      C1293   1.451       .  S
C1291      N1298   1.157       .  T
C1292      N1297   1.157       .  T
C1293      N1295   1.157       .  T
C1294      N1296   1.156       .  T
C1299      C1300   1.419   1_556  A
C1299      C1304   1.426       .  A
C1300      C1301   1.422       .  A
C1300      C1305   1.452       .  S
C1301      C1302   1.422       .  A
C1301      C1308   1.449       .  S
C1302      C1303   1.415       .  A
C1303      C1304   1.413   1_554  A
C1303      C1306   1.450   1_554  S
C1304      C1307   1.454       .  S
C1305      N1312   1.157       .  T
C1306      N2847   1.155   1_455  T
C1307      N1309   1.158       .  T
C1308      N1310   1.158       .  T
N1311      C2842   1.156   1_556  T
C1313      C1314   1.426       .  A
C1313      C1318   1.419       .  A
C1314      C1315   1.417       .  A
C1314      C1319   1.453       .  S
C1315      C1316   1.410       .  A
C1315      C1322   1.447       .  S
C1316      C1317   1.417       .  A
C1317      C1318   1.421       .  A
C1317      C1320   1.451       .  S
C1318      C1321   1.449       .  S
C1319      N1326   1.157       .  T
C1320      N1325   1.157       .  T
C1321      N1323   1.158       .  T
C1322      N1324   1.156       .  T
C1327      C1328   1.416       .  A
C1327      C1332   1.409       .  A
C1328      C1329   1.423       .  A
C1328      C1333   1.448       .  S
C1329      C1330   1.414       .  A
C1329      C1336   1.448       .  S
C1330      C1331   1.417       .  A
C1331      C1332   1.418       .  A
C1331      C1334   1.447       .  S
C1332      C1335   1.447       .  S
C1333      N1340   1.157       .  T
C1334      N1339   1.157       .  T
C1335      N1337   1.156       .  T
C1336      N1338   1.157       .  T
C1341      C1346   1.412       .  A
C1342      C1343   1.408       .  A
C1342      C1347   1.452       .  S
C1343      C1344   1.404       .  A
C1343      C1350   1.450       .  S
C1345      C1346   1.413       .  A
C1345      C1348   1.450       .  S
C1346      C1349   1.450       .  S
C1347      N1354   1.157       .  T
C1348      N1353   1.157       .  T
C1349      N1351   1.158       .  T
C1350      N1352   1.157       .  T
C1355      C1356   1.426       .  A
C1355      C1360   1.429       .  A
C1356      C1357   1.416       .  A
C1356      C1361   1.451       .  S
C1357      C1358   1.410       .  A
C1357      C1364   1.451       .  S
C1358      C1359   1.406       .  A
C1359      C1360   1.414       .  A
C1359      C1362   1.448       .  S
C1360      C1363   1.452       .  S
C1361      N1368   1.157       .  T
C1362      N1367   1.156   1_565  T
C1363      N1365   1.158       .  T
C1364      N1366   1.158       .  T
C1369      C1370   1.408       .  A
C1370      C1371   1.400       .  A
C1370      C1375   1.452       .  S
C1371      C1378   1.450       .  S
C1372      C1373   1.406       .  A
C1373      C1374   1.393       .  A
C1373      C1376   1.453       .  S
C1374      C1377   1.449       .  S
C1375      N1382   1.157       .  T
C1376      N1381   1.157       .  T
C1377      N1379   1.155       .  T
C1378      N1380   1.157       .  T
C1383      C1384   1.417       .  A
C1383      C1388   1.422       .  A
C1384      C1385   1.425       .  A
C1384      C1389   1.449       .  S
C1385      C1386   1.427       .  A
C1385      C1392   1.452   1_556  S
C1386      C1387   1.418       .  A
C1387      C1388   1.415       .  A
C1387      C1390   1.451       .  S
C1388      C1391   1.453       .  S
C1389      N1396   1.157       .  T
C1390      N1395   1.158       .  T
C1391      N1393   1.157       .  T
C1392      N1394   1.157       .  T
C1397      C1398   1.412   1_554  A
C1397      C1402   1.416       .  A
C1398      C1399   1.398       .  A
C1398      C1403   1.445       .  S
C1399      C1400   1.402       .  A
C1399      C1406   1.453       .  S
C1400      C1401   1.402       .  A
C1401      C1402   1.396   1_556  A
C1401      C1404   1.450       .  S
C1402      C1405   1.455       .  S
C1403      N1410   1.154       .  T
C1404      N1409   1.156       .  T
C1405      N1407   1.157       .  T
C1406      N1408   1.157       .  T
C1411      C1412   1.415       .  A
C1411      C1416   1.410       .  A
C1412      C1413   1.415       .  A
C1412      C1417   1.450       .  S
C1413      C1414   1.410       .  A
C1413      C1420   1.448       .  S
C1414      C1415   1.414       .  A
C1415      C1416   1.417       .  A
C1415      C1418   1.450       .  S
C1416      C1419   1.448       .  S
C1417      N1424   1.157       .  T
C1418      N1423   1.157       .  T
C1419      N1421   1.157       .  T
C1420      N1422   1.157       .  T
C1425      C1426   1.407       .  A
C1425      C1430   1.416       .  A
C1426      C1427   1.406       .  A
C1426      C1431   1.443       .  S
C1427      C1428   1.413       .  A
C1427      C1434   1.452       .  S
C1428      C1429   1.415       .  A
C1429      C1430   1.421       .  A
C1429      C1432   1.449       .  S
C1430      C1433   1.447       .  S
C1431      N1438   1.155       .  T
C1432      N1437   1.157       .  T
C1433      N1435   1.157       .  T
C1434      N1436   1.157       .  T
C1439      C1440   1.415   1_556  A
C1439      C1444   1.424       .  A
C1440      C1441   1.417       .  A
C1440      C1445   1.451       .  S
C1441      C1442   1.420       .  A
C1441      C1448   1.452       .  S
C1442      C1443   1.413       .  A
C1443      C1444   1.417   1_554  A
C1444      C1447   1.453       .  S
C1445      N1452   1.158       .  T
C1446      N1451   1.156       .  T
C1447      N1449   1.157       .  T
C1448      N1450   1.157       .  T
C1453      C1454   1.420       .  A
C1453      C1458   1.424       .  A
C1454      C1455   1.415       .  A
C1454      C1459   1.441       .  S
C1455      C1456   1.414       .  A
C1455      C1462   1.454       .  S
C1456      C1457   1.416       .  A
C1457      C1458   1.425       .  A
C1457      C1460   1.450       .  S
C1458      C1461   1.450       .  S
C1459      N1466   1.154       .  T
C1460      N1465   1.158       .  T
C1461      N1463   1.157       .  T
C1462      N1464   1.157       .  T
C1467      C1468   1.426       .  A
C1467      C1472   1.412       .  A
C1468      C1469   1.405       .  A
C1468      C1473   1.454       .  S
C1469      C1470   1.409       .  A
C1469      C1476   1.453       .  S
C1470      C1471   1.411       .  A
C1471      C1472   1.398       .  A
C1471      C1474   1.454       .  S
C1472      C1475   1.451       .  S
C1473      N1480   1.157       .  T
C1474      N1479   1.157       .  T
C1475      N1477   1.158       .  T
C1476      N1478   1.158       .  T
C1481      C1482   1.412       .  A
C1481      C1486   1.417       .  A
C1482      C1483   1.401       .  A
C1482      C1487   1.454       .  S
C1483      C1484   1.419       .  A
C1483      C1490   1.455       .  S
C1484      C1485   1.414       .  A
C1485      C1486   1.427       .  A
C1485      C1488   1.447       .  S
C1486      C1489   1.447       .  S
C1487      N1494   1.157       .  T
C1488      N1493   1.157       .  T
C1489      N1491   1.157       .  T
C1490      N1492   1.157       .  T
C1495      C1496   1.412       .  A
C1495      C1500   1.407       .  A
C1496      C1497   1.415       .  A
C1496      C1501   1.450       .  S
C1497      C1498   1.414       .  A
C1497      C1504   1.450       .  S
C1498      C1499   1.420       .  A
C1499      C1500   1.409       .  A
C1499      C1502   1.452       .  S
C1500      C1503   1.453       .  S
C1501      N1508   1.157       .  T
C1502      N1507   1.158       .  T
C1503      N1505   1.157       .  T
C1504      N1506   1.157       .  T
C1509      C1510   1.411       .  A
C1509      C1514   1.411       .  A
C1510      C1511   1.424       .  A
C1510      C1515   1.449       .  S
C1511      C1512   1.424       .  A
C1511      C1518   1.450       .  S
C1512      C1513   1.414       .  A
C1513      C1514   1.413       .  A
C1513      C1516   1.447       .  S
C1514      C1517   1.450       .  S
C1515      N1522   1.157       .  T
C1516      N1521   1.156       .  T
C1517      N1519   1.157       .  T
C1518      N1520   1.157       .  T
C1523      C1524   1.418       .  A
C1523      C1528   1.418       .  A
C1524      C1525   1.416       .  A
C1524      C1529   1.454       .  S
C1525      C1526   1.422       .  A
C1525      C1532   1.451       .  S
C1526      C1527   1.421       .  A
C1527      C1528   1.417       .  A
C1527      C3066   1.451       .  S
C1528      C1531   1.453       .  S
C1529      N1536   1.158       .  T
C1530      C3063   1.451   1_455  S
C1530      N1535   1.157       .  T
C1531      N1533   1.157       .  T
C1532      N1534   1.157       .  T
Fe1537     O1553   2.078       .  S
Fe1537     O1543   2.018       .  S
Fe1537     O1550   2.032       .  S
Fe1537     O1542   2.130       .  S
Fe1537     O1548   1.941       .  S
Fe1538     O1541   2.100       .  S
Fe1538     O1545   2.095       .  S
Fe1538     O1549   2.115       .  S
Fe1538     O1554   2.106       .  S
Fe1538     O1548   1.930       .  S
Fe1539     O1557   2.052       .  S
Fe1539     O1544   2.069       .  S
Fe1539     O1551   2.091       .  S
Fe1539     O1540   2.043       .  S
Fe1539     O1548   1.910       .  S
O1540      C1547   1.264       .  A
O1541      C1555   1.276       .  A
O1542      C1547   1.277       .  A
O1543      C1546   1.256       .  A
O1544      C1556   1.273       .  A
O1545      C1558   1.275       .  A
C1546      O1551   1.274       .  A
C1546      C2235   1.489       .  S
C1547      C2249   1.498       .  S
O1549      C1552   1.281       .  A
O1550      C1552   1.270       .  A
C1552      C2266   1.484       .  S
O1553      C1558   1.270       .  A
O1554      C1556   1.281       .  A
C1555      O1557   1.269       .  A
C1555      C2291   1.503       .  S
C1556      C2277   1.493       .  S
C1558      C2221   1.505       .  S
Fe1559     O1575   2.046       .  S
Fe1559     O1565   2.030       .  S
Fe1559     O1572   2.055       .  S
Fe1559     O1564   2.072       .  S
Fe1559     O1570   1.944       .  S
Fe1560     O1563   2.049       .  S
Fe1560     O1567   2.134       .  S
Fe1560     O1571   2.077       .  S
Fe1560     O1576   2.152       .  S
Fe1560     O1570   1.948       .  S
Fe1561     O1579   2.133       .  S
Fe1561     O1566   2.036       .  S
Fe1561     O1573   2.029       .  S
Fe1561     O1562   2.109       .  S
Fe1561     O1570   1.944       .  S
O1562      C1569   1.276       .  A
O1563      C1577   1.262       .  A
O1564      C1569   1.270       .  A
O1565      C1568   1.266       .  A
O1566      C1578   1.263       .  A
O1567      C1580   1.283       .  A
C1568      O1573   1.265       .  A
C1568      C2168   1.436       .  S
C1569      C2179   1.499       .  S
O1571      C1574   1.273       .  A
O1572      C1574   1.268       .  A
C1574      C2263   1.474       .  S
O1575      C1580   1.265       .  A
O1576      C1578   1.287       .  A
C1577      O1579   1.281       .  A
C1577      C2207   1.518       .  S
C1578      C2193   1.490       .  S
C1580      C2151   1.519       .  S
Fe1581     O2365   2.031   1_545  S
Fe1581     O1587   2.039       .  S
Fe1581     O1594   2.046       .  S
Fe1581     O1586   2.082       .  S
Fe1581     O1592   1.953       .  S
Fe1582     O1585   2.052       .  S
Fe1582     O1589   2.125       .  S
Fe1582     O1593   2.082       .  S
Fe1582     O1598   2.146       .  S
Fe1582     O1592   1.960       .  S
Fe1583     O1601   2.114       .  S
Fe1583     O1588   2.028       .  S
Fe1583     O1595   2.037       .  S
Fe1583     O1584   2.106       .  S
Fe1583     O1592   1.938       .  S
O1584      C1591   1.276       .  A
O1585      C1599   1.263       .  A
O1586      C1591   1.272       .  A
O1587      C1590   1.265       .  A
O1588      C1600   1.264       .  A
O1589      C2370   1.284   1_545  A
C1590      O1595   1.264       .  A
C1590      C2140   1.444       .  S
C1591      C2095   1.500       .  S
O1593      C1596   1.272       .  A
O1594      C1596   1.264       .  A
C1596      C2112   1.476       .  S
O1597     Fe2349   2.032       .  S
O1597      C1602   1.266       .  A
O1598      C1600   1.286       .  A
C1599      O1601   1.273       .  A
C1599      C2081   1.500       .  S
C1600      C2252   1.500       .  S
C1602      O2357   1.282       .  A
C1602      C2126   1.496       .  S
Fe1603     O2387   2.111       .  S
Fe1603     O1609   1.972       .  S
Fe1603     O1616   2.018       .  S
Fe1603     O1608   2.084       .  S
Fe1603     O1614   1.931       .  S
Fe1604     O1607   2.059       .  S
Fe1604     O1611   2.099       .  S
Fe1604     O1615   2.095       .  S
Fe1604     O1620   2.097       .  S
Fe1604     O1614   1.945       .  S
Fe1605     O1623   2.085       .  S
Fe1605     O1610   2.087       .  S
Fe1605     O1617   2.061       .  S
Fe1605     O1606   2.079       .  S
Fe1605     O1614   1.924       .  S
O1606      C1613   1.274       .  A
O1607      C1621   1.259       .  A
O1608      C1613   1.273       .  A
O1609      C1612   1.250       .  A
O1610      C1622   1.284       .  A
O1611      C2392   1.283       .  A
C1612      O1617   1.271       .  A
C1612      C2053   1.433       .  S
C1613      C2196   1.497       .  S
O1615      C1618   1.266       .  A
O1616      C1618   1.253       .  A
C1618      C2109   1.469       .  S
O1619     Fe2371   2.082   1_545  S
O1619      C1624   1.275       .  A
O1620      C1622   1.289       .  A
C1621      O1623   1.265       .  A
C1621      C2067   1.513       .  S
C1622      C2028   1.488       .  S
C1624      O2379   1.278   1_545  A
C1624      C2039   1.526       .  S
Fe1625     O1631   2.055       .  S
Fe1625     O1638   2.062       .  S
Fe1625     O1630   2.071       .  S
Fe1625     O1636   1.961       .  S
Fe1626     O1629   2.056       .  S
Fe1626     O1633   2.131       .  S
Fe1626     O1637   2.082       .  S
Fe1626     O1642   2.145       .  S
Fe1626     O1636   1.958       .  S
Fe1627     O1645   2.116       .  S
Fe1627     O1632   2.035       .  S
Fe1627     O1639   2.041       .  S
Fe1627     O1628   2.111       .  S
Fe1627     O1636   1.950       .  S
O1628      C1635   1.282       .  A
O1629      C1643   1.266       .  A
O1630      C1635   1.274       .  A
O1631      C1634   1.265       .  A
O1632      C1644   1.264       .  A
C1634      O1639   1.261       .  A
C1634      C1997   1.457       .  S
C1635      C2280   1.506       .  S
O1637      C1640   1.272       .  A
O1638      C1640   1.265       .  A
C1640      C1969   1.481       .  S
O1641      C1646   1.266       .  A
O1642      C1644   1.286       .  A
C1643      O1645   1.280       .  A
C1643      C2014   1.516       .  S
C1644      C2098   1.501       .  S
C1646      C1983   1.515       .  S
Fe1647     O1653   2.032       .  S
Fe1647     O1660   2.050       .  S
Fe1647     O1652   2.050       .  S
Fe1647     O1658   1.960       .  S
Fe1648     O1651   2.063       .  S
Fe1648     O1655   2.134       .  S
Fe1648     O1659   2.087       .  S
Fe1648     O1664   2.144       .  S
Fe1648     O1658   1.965       .  S
Fe1649     O1667   2.099       .  S
Fe1649     O1654   2.037       .  S
Fe1649     O1661   2.035       .  S
Fe1649     O1650   2.108       .  S
Fe1649     O1658   1.965       .  S
O1650      C1657   1.278       .  A
O1651      C1665   1.263       .  A
O1652      C1657   1.268       .  A
O1653      C1656   1.261       .  A
O1654      C1666   1.270       .  A
C1656      O1661   1.260       .  A
C1656      C1955   1.443       .  S
C1657      C2025   1.491       .  S
O1659      C1662   1.268       .  A
O1660      C1662   1.263       .  A
C1662      C1972   1.503       .  S
O1663      C1668   1.273   1_655  A
O1664      C1666   1.291       .  A
C1665      O1667   1.271       .  A
C1665      C1927   1.513       .  S
C1666      C2182   1.494       .  S
C1668      C1941   1.526   1_455  S
Fe1669     O1685   2.021       .  S
Fe1669     O1675   2.049       .  S
Fe1669     O1682   2.069       .  S
Fe1669     O1674   2.036       .  S
Fe1669     O1680   1.971       .  S
Fe1670     O1673   2.106       .  S
Fe1670     O1677   2.065       .  S
Fe1670     O1681   2.104       .  S
Fe1670     O1686   2.058       .  S
Fe1670     O1680   1.955       .  S
Fe1671     O1689   2.059       .  S
Fe1671     O1676   2.131       .  S
Fe1671     O1683   2.121       .  S
Fe1671     O1672   2.085       .  S
Fe1671     O1680   1.965       .  S
O1672      C1679   1.269       .  A
O1673      C1687   1.274       .  A
O1674      C1679   1.260       .  A
O1675      C1678   1.266       .  A
O1676      C1688   1.287       .  A
O1677      C1690   1.270       .  A
C1678      O1683   1.283       .  A
C1678      C2084   1.498       .  S
C1679      C1902   1.476       .  S
O1681      C1684   1.277       .  A
O1682      C1684   1.271       .  A
C1684      C1885   1.496       .  S
O1685      C1690   1.261       .  A
O1686      C1688   1.273       .  A
C1687      O1689   1.263       .  A
C1687      C1986   1.532       .  S
C1688      C1913   1.494       .  S
C1690      C2238   1.468       .  S
Fe1691     O1707   2.023       .  S
Fe1691     O1697   2.087       .  S
Fe1691     O1704   2.076       .  S
Fe1691     O1696   2.029       .  S
Fe1691     O1702   1.953       .  S
Fe1692     O1695   2.084       .  S
Fe1692     O1699   2.029       .  S
Fe1692     O1703   2.092       .  S
Fe1692     O1708   2.058       .  S
Fe1692     O1702   1.931       .  S
Fe1693     O1711   2.085       .  S
Fe1693     O1698   2.129       .  S
Fe1693     O1705   2.120       .  S
Fe1693     O1694   2.106       .  S
Fe1693     O1702   1.949       .  S
O1694      C1701   1.271       .  A
O1695      C1709   1.268       .  A
O1696      C1701   1.258       .  A
O1697      C1700   1.276       .  A
O1698      C1710   1.290       .  A
O1699      C1712   1.263       .  A
C1700      O1705   1.286       .  A
C1700      C1930   1.525       .  S
C1701      C1899   1.492       .  S
O1703      C1706   1.276       .  A
O1704      C1706   1.269       .  A
C1706      C1860   1.497       .  S
O1707      C1712   1.262       .  A
O1708      C1710   1.272       .  A
C1709      O1711   1.266       .  A
C1709      C2042   1.525   1_554  S
C1710      C1871   1.511       .  S
C1712      C2165   1.457       .  S
Fe1713     O1729   2.029       .  S
Fe1713     O2487   2.046       .  S
Fe1713     O1726   2.066       .  S
Fe1713     O1718   2.049       .  S
Fe1713     O1724   1.968       .  S
Fe1714     O1717   2.070       .  S
Fe1714     O1721   2.034       .  S
Fe1714     O1725   2.062       .  S
Fe1714     O1730   2.043       .  S
Fe1714     O1724   1.960       .  S
Fe1715     O1733   2.056       .  S
Fe1715     O1720   2.142       .  S
Fe1715     O1727   2.134       .  S
Fe1715     O1716   2.071       .  S
Fe1715     O1724   1.959       .  S
O1716      C1723   1.264       .  A
O1717      C1731   1.263       .  A
O1718      C1723   1.261       .  A
O1719     Fe2481   2.045       .  S
O1719      C1722   1.269   1_565  A
O1720      C1732   1.289       .  A
O1721      C1734   1.261       .  A
C1722      O2495   1.287   1_545  A
C1722      C2011   1.510       .  S
C1723      C1846   1.481       .  S
O1725      C1728   1.270       .  A
O1726      C1728   1.272       .  A
O1727      C2490   1.289       .  A
C1728      C1832   1.486       .  S
O1729      C1734   1.261       .  A
O1730      C1732   1.270       .  A
C1731      O1733   1.262       .  A
C1731      C2224   1.498       .  S
C1732      C1888   1.498       .  S
C1734      C2137   1.442       .  S
Fe1735     O1751   2.053       .  S
Fe1735     O2509   2.059   1_545  S
Fe1735     O1748   2.092       .  S
Fe1735     O1740   2.065       .  S
Fe1735     O1746   1.973       .  S
Fe1736     O1739   2.081       .  S
Fe1736     O1743   2.027       .  S
Fe1736     O1747   2.075       .  S
Fe1736     O1752   2.018       .  S
Fe1736     O1746   1.945       .  S
Fe1737     O1755   2.079       .  S
Fe1737     O1742   2.140       .  S
Fe1737     O1749   2.126       .  S
Fe1737     O1738   2.087       .  S
Fe1737     O1746   1.961       .  S
O1738      C1745   1.270       .  A
O1739      C1753   1.268       .  A
O1740      C1745   1.265       .  A
O1741     Fe2503   2.039       .  S
O1741      C1744   1.269       .  A
O1742      C1754   1.288       .  A
O1743      C1756   1.261       .  A
C1744      O2517   1.291       .  A
C1744      C2210   1.514       .  S
C1745      C1843   1.501       .  S
O1747      C1750   1.276       .  A
O1748      C1750   1.276       .  A
O1749      C2512   1.288   1_545  A
C1750      C1874   1.507       .  S
O1751      C1756   1.263       .  A
O1752      C1754   1.264       .  A
C1753      O1755   1.267       .  A
C1753      C1944   1.528   1_554  S
C1754      C1815   1.488       .  S
C1756      C2056   1.484       .  S
Fe1757     O1773   2.016       .  S
Fe1757     O1770   2.064       .  S
Fe1757     O1762   2.026       .  S
Fe1757     O1768   1.959       .  S
Fe1758     O1761   2.103       .  S
Fe1758     O1765   2.043       .  S
Fe1758     O1769   2.122       .  S
Fe1758     O1774   2.050       .  S
Fe1758     O1768   1.958       .  S
Fe1759     O1777   2.079       .  S
Fe1759     O1764   2.115       .  S
Fe1759     O1771   2.099       .  S
Fe1759     O1760   2.123       .  S
Fe1759     O1768   1.967       .  S
O1760      C1767   1.280       .  A
O1761      C1775   1.275       .  A
O1762      C1767   1.262       .  A
O1763      C1766   1.269       .  A
O1764      C1776   1.284       .  A
O1765      C1778   1.266       .  A
C1766      C2070   1.521       .  S
C1767      C1801   1.494   1_655  S
O1769      C1772   1.280       .  A
O1770      C1772   1.265       .  A
C1772      C1818   1.512       .  S
O1773      C1778   1.264       .  A
O1774      C1776   1.270       .  A
C1775      O1777   1.269       .  A
C1775      C2154   1.538   1_554  S
C1776      C1857   1.490       .  S
C1778      C1958   1.462       .  S
Fe1779     O1795   2.006       .  S
Fe1779     O1792   2.103       .  S
Fe1779     O1784   2.029       .  S
Fe1779     O1790   1.928       .  S
Fe1780     O1783   2.083       .  S
Fe1780     O1787   2.079       .  S
Fe1780     O1791   2.064       .  S
Fe1780     O1796   2.105       .  S
Fe1780     O1790   1.916       .  S
Fe1781     O1799   2.074       .  S
Fe1781     O1786   2.068       .  S
Fe1781     O1793   2.059       .  S
Fe1781     O1782   2.100       .  S
Fe1781     O1790   1.958       .  S
O1782      C1789   1.267       .  A
O1783      C1797   1.265       .  A
O1784      C1789   1.257       .  A
O1785      C1788   1.282   1_655  A
O1786      C1798   1.283       .  A
O1787      C1800   1.275       .  A
C1788      C2294   1.514   1_455  S
C1789      C1804   1.479       .  S
O1791      C1794   1.272       .  A
O1792      C1794   1.277       .  A
C1794      C1916   1.498       .  S
O1795      C1800   1.257       .  A
O1796      C1798   1.288       .  A
C1797      O1799   1.262       .  A
C1797      C2123   1.515       .  S
C1798      C1829   1.487       .  S
C1800      C2000   1.456       .  S
C1801      C1806   1.414   1_455  A
C1802      C1803   1.404       .  A
C1802      C1807   1.452       .  S
C1803      C1804   1.405       .  A
C1803      C1810   1.454       .  S
C1805      C1806   1.417   1_455  A
C1805      C1808   1.451   1_455  S
C1806      C1809   1.450       .  S
C1807      N1814   1.157       .  T
C1808      N1813   1.157       .  T
C1809      N1811   1.158       .  T
C1810      N1812   1.157       .  T
C1815      C1816   1.411       .  A
C1815      C1820   1.408       .  A
C1816      C1817   1.419       .  A
C1816      C1821   1.450       .  S
C1817      C1818   1.411       .  A
C1817      C1824   1.442       .  S
C1818      C1819   1.424       .  A
C1819      C1820   1.419       .  A
C1819      C1822   1.449       .  S
C1820      C1823   1.449       .  S
C1821      N1828   1.157       .  T
C1822      N1827   1.157   1_655  T
C1823      N1825   1.157       .  T
C1824      N1826   1.155       .  T
C1829      C1830   1.409       .  A
C1829      C1834   1.412       .  A
C1830      C1831   1.401       .  A
C1830      C1835   1.445       .  S
C1831      C1832   1.412       .  A
C1831      C1838   1.451       .  S
C1832      C1833   1.419       .  A
C1833      C1834   1.419       .  A
C1833      C1836   1.450       .  S
C1834      C1837   1.450       .  S
C1835      N1842   1.154       .  T
C1836      N1841   1.157       .  T
C1837      N1839   1.157       .  T
C1838      N1840   1.156       .  T
C1843      C2612   1.419   1_545  A
C1843      C1848   1.414       .  A
C1844      C2611   1.416       .  A
C1844      C1845   1.412       .  A
C1844      C1849   1.450       .  S
C1845      C1846   1.409       .  A
C1845      C1852   1.450       .  S
C1846      C2615   1.412       .  A
C1847      C2614   1.415   1_545  A
C1847      C1848   1.417       .  A
C1847      C1850   1.449       .  S
C1848      C1851   1.451       .  S
C1849      N1856   1.157       .  T
C1850      N1855   1.157       .  T
C1851      N1853   1.157       .  T
C1852      N1854   1.157       .  T
C1857      C1858   1.413       .  A
C1857      C1862   1.410       .  A
C1858      C1859   1.416       .  A
C1858      C1863   1.449       .  S
C1859      C1860   1.414       .  A
C1859      C1866   1.448       .  S
C1860      C1861   1.411       .  A
C1861      C1862   1.417       .  A
C1861      C1864   1.449       .  S
C1862      C1865   1.444       .  S
C1863      N1870   1.157       .  T
C1864      N1869   1.157       .  T
C1865      N1867   1.156       .  T
C1866      N1868   1.157       .  T
C1871      C1872   1.426       .  A
C1871      C1876   1.418       .  A
C1872      C1873   1.405       .  A
C1872      C1877   1.451       .  S
C1873      C1874   1.408       .  A
C1873      C1880   1.454       .  S
C1874      C1875   1.417       .  A
C1875      C1876   1.429       .  A
C1875      C1878   1.447       .  S
C1876      C1879   1.447       .  S
C1877      N1884   1.156       .  T
C1878      N1883   1.158       .  T
C1879      N1881   1.157       .  T
C1880      N1882   1.155       .  T
C1885      C1886   1.416       .  A
C1885      C1890   1.409       .  A
C1886      C1887   1.418       .  A
C1886      C1891   1.450       .  S
C1887      C1888   1.410       .  A
C1887      C1894   1.446       .  S
C1888      C1889   1.417       .  A
C1889      C1890   1.419       .  A
C1889      C1892   1.450       .  S
C1890      C1893   1.449       .  S
C1891      N1898   1.157       .  T
C1892      N1897   1.157       .  T
C1893      N1895   1.157       .  T
C1894      N1896   1.156       .  T
C1899      C1900   1.415       .  A
C1899      C1904   1.420       .  A
C1900      C1901   1.416       .  A
C1900      C1905   1.450       .  S
C1901      C1902   1.412       .  A
C1901      C1908   1.449       .  S
C1902      C1903   1.407       .  A
C1903      C1904   1.405       .  A
C1903      C1906   1.452       .  S
C1904      C1907   1.453       .  S
C1905      N1912   1.157       .  T
C1906      N1911   1.157       .  T
C1907      N1909   1.157       .  T
C1908      N1910   1.157       .  T
C1913      C1914   1.406       .  A
C1913      C1918   1.415       .  A
C1914      C1915   1.407       .  A
C1914      C1919   1.447       .  S
C1915      C1916   1.416       .  A
C1915      C1922   1.451       .  S
C1916      C1917   1.415       .  A
C1917      C1918   1.424       .  A
C1917      C1920   1.448       .  S
C1918      C1921   1.445       .  S
C1919      N1926   1.156       .  T
C1920      N1925   1.157       .  T
C1921      N1923   1.157       .  T
C1922      N1924   1.157       .  T
C1927      C1928   1.416   1_556  A
C1927      C1932   1.416       .  A
C1928      C1929   1.425       .  A
C1928      C1933   1.450       .  S
C1929      C1930   1.424       .  A
C1929      C1936   1.450       .  S
C1930      C1931   1.420       .  A
C1931      C1932   1.420   1_554  A
C1931      C1934   1.441   1_554  S
C1932      C1935   1.453       .  S
C1933      N1940   1.157       .  T
C1934      N1939   1.153       .  T
C1935      N1937   1.157       .  T
C1936      N1938   1.157       .  T
C1941      C1942   1.422       .  A
C1941      C1946   1.422       .  A
C1942      C1943   1.420       .  A
C1942      C1947   1.452       .  S
C1943      C1944   1.425       .  A
C1943      C1950   1.451       .  S
C1944      C1945   1.426   1_556  A
C1945      C1946   1.422   1_554  A
C1945      C1948   1.452       .  S
C1946      C1949   1.452   1_655  S
C1947      N1954   1.157       .  T
C1948      N1953   1.158       .  T
C1950      N1952   1.157       .  T
C1955      C1956   1.400       .  A
C1955      C1960   1.405       .  A
C1957      C1958   1.415       .  A
C1957      C1964   1.455       .  S
C1959      C1960   1.399       .  A
C1959      C1962   1.450       .  S
C1960      C1963   1.453       .  S
C1961      N1968   1.154       .  T
C1962      N1967   1.156       .  T
C1963      N1965   1.157       .  T
C1964      N1966   1.158       .  T
C1969      C1970   1.408       .  A
C1970      C1975   1.452       .  S
C1971      C1972   1.420       .  A
C1971      C1978   1.449       .  S
C1972      C1973   1.419       .  A
C1973      C1974   1.420       .  A
C1973      C1976   1.450       .  S
C1974      C1977   1.450       .  S
C1975      N1982   1.157       .  T
C1976      N1981   1.157       .  T
C1977      N1979   1.157       .  T
C1978      N1980   1.156       .  T
C1983      C1984   1.422       .  A
C1983      C1988   1.412       .  A
C1984      C1985   1.419       .  A
C1984      C1989   1.453       .  S
C1985      C1986   1.422       .  A
C1985      C1992   1.452       .  S
C1986      C1987   1.433       .  A
C1987      C1988   1.424       .  A
C1987      C1990   1.451       .  S
C1988      C1991   1.451       .  S
C1989      N1996   1.158       .  T
C1990      N1995   1.158       .  T
C1992      N1994   1.157       .  T
C1997      C1998   1.409       .  A
C1998      C1999   1.400       .  A
C1998      C2003   1.444       .  S
C1999      C2006   1.450       .  S
C2000      C2001   1.419       .  A
C2001      C2002   1.401       .  A
C2001      C2004   1.451       .  S
C2002      C2005   1.450       .  S
C2003      N2010   1.156       .  T
C2004      N2009   1.157       .  T
C2005      N2007   1.157       .  T
C2006      N2008   1.157       .  T
C2011      C2012   1.420       .  A
C2011      C2016   1.416       .  A
C2012      C2013   1.419       .  A
C2012      C2017   1.451       .  S
C2013      C2014   1.417       .  A
C2013      C2020   1.451       .  S
C2014      C2015   1.425       .  A
C2015      C2016   1.422       .  A
C2015      C2018   1.453       .  S
C2016      C2787   1.449   1_545  S
C2017      N2024   1.157       .  T
C2018      N2023   1.158       .  T
C2019      C2784   1.450       .  S
C2019      N2021   1.157       .  T
C2020      N2022   1.157       .  T
C2025      C2026   1.407       .  A
C2025      C2030   1.422       .  A
C2026      C2027   1.408       .  A
C2026      C2031   1.447       .  S
C2027      C2028   1.409       .  A
C2027      C2034   1.443       .  S
C2028      C2029   1.408       .  A
C2029      C2030   1.419       .  A
C2029      C2032   1.449       .  S
C2030      C2033   1.450       .  S
C2031      N2038   1.156       .  T
C2032      N2037   1.157       .  T
C2033      N2035   1.157       .  T
C2034      N2036   1.154       .  T
C2039      C2040   1.424       .  A
C2039      C2044   1.423       .  A
C2040      C2041   1.421       .  A
C2040      C2045   1.450       .  S
C2041      C2042   1.420       .  A
C2041      C2048   1.452       .  S
C2042      C2043   1.426       .  A
C2043      C2044   1.420       .  A
C2043      C2046   1.454   1_556  S
C2044      C2047   1.451   1_545  S
C2045      N2052   1.157       .  T
C2046      N2051   1.158       .  T
C2047      N2817   1.157       .  T
C2048      N2050   1.158       .  T
N2049      C2815   1.157       .  T
C2053      C2822   1.399       .  A
C2053      C2058   1.416       .  A
C2054      C2821   1.394   1_554  A
C2054      C2055   1.399       .  A
C2054      C2059   1.453       .  S
C2055      C2056   1.427       .  A
C2055      C2062   1.447       .  S
C2056      C2825   1.418   1_554  A
C2057      C2824   1.399   1_556  A
C2057      C2058   1.390       .  A
C2057      C2060   1.452       .  S
C2058      C2061   1.451       .  S
C2059      N2066   1.157       .  T
C2060      N2065   1.157       .  T
C2061      N2063   1.157       .  T
C2062      N2064   1.155       .  T
C2067      C2068   1.416   1_556  A
C2067      C2072   1.423       .  A
C2068      C2069   1.420       .  A
C2068      C2073   1.454       .  S
C2069      C2070   1.428       .  A
C2069      C2076   1.449       .  S
C2070      C2071   1.421       .  A
C2071      C2072   1.415   1_554  A
C2071      C2074   1.451       .  S
C2072      C2075   1.454       .  S
C2073      N2080   1.157       .  T
C2075      N2077   1.158       .  T
C2076      N2078   1.157       .  T
C2081      C2082   1.415       .  A
C2081      C2086   1.414       .  A
C2082      C2083   1.413       .  A
C2082      C2087   1.453       .  S
C2083      C2084   1.415       .  A
C2083      C2090   1.451       .  S
C2084      C2085   1.416       .  A
C2085      C2086   1.423       .  A
C2085      C2088   1.448       .  S
C2086      C2089   1.449       .  S
C2087      N2094   1.157       .  T
C2088      N2093   1.157       .  T
C2089      N2091   1.157       .  T
C2090      N2092   1.157       .  T
C2095      C2096   1.414       .  A
C2095      C2100   1.409       .  A
C2096      C2097   1.420       .  A
C2096      C2101   1.449       .  S
C2097      C2098   1.414       .  A
C2097      C2104   1.447       .  S
C2098      C2099   1.416       .  A
C2099      C2100   1.418       .  A
C2099      C2102   1.447       .  S
C2100      C2103   1.447       .  S
C2101      N2108   1.157   1_545  T
C2102      N2107   1.157       .  T
C2103      N2105   1.157       .  T
C2104      N2106   1.156       .  T
C2109      C2878   1.416       .  A
C2109      C2114   1.407       .  A
C2110      C2877   1.423   1_545  A
C2110      C2111   1.409       .  A
C2110      C2115   1.451       .  S
C2111      C2112   1.402       .  A
C2111      C2118   1.451       .  S
C2112      C2881   1.413   1_545  A
C2113      C2880   1.412       .  A
C2113      C2114   1.408       .  A
C2113      C2116   1.451       .  S
C2114      C2117   1.450       .  S
C2115      N2122   1.157       .  T
C2116      N2121   1.157       .  T
C2117      N2119   1.157       .  T
C2118      N2120   1.157       .  T
C2123      C2124   1.423       .  A
C2123      C2128   1.428       .  A
C2124      C2125   1.417       .  A
C2124      C2129   1.451       .  S
C2125      C2126   1.414       .  A
C2125      C2132   1.452       .  S
C2126      C2127   1.408       .  A
C2127      C2128   1.416       .  A
C2127      C2130   1.450       .  S
C2128      C2131   1.452       .  S
C2129      N2136   1.157       .  T
C2130      N2135   1.157       .  T
C2131      N2133   1.158       .  T
C2132      N2134   1.158       .  T
C2137      C2138   1.407       .  A
C2137      C2910   1.401       .  A
C2138      C2139   1.398       .  A
C2138      C2143   1.452       .  S
C2139      C2908   1.410       .  A
C2139      C2146   1.451       .  S
C2140      C2907   1.407   1_545  A
C2140      C2141   1.406       .  A
C2141      C2142   1.394   1_545  A
C2141      C2144   1.453       .  S
C2142      C2905   1.403       .  A
C2142      C2145   1.448   1_565  S
C2143      N2150   1.157       .  T
C2144      N2149   1.157       .  T
C2145      N2147   1.155       .  T
C2146      N2148   1.157       .  T
C2151      C2152   1.414       .  A
C2151      C2156   1.419       .  A
C2152      C2153   1.424       .  A
C2152      C2157   1.448       .  S
C2153      C2154   1.433       .  A
C2153      C2160   1.453   1_556  S
C2154      C2155   1.427       .  A
C2155      C2156   1.424       .  A
C2155      C2158   1.450       .  S
C2156      C2159   1.453       .  S
C2157      N2164   1.156       .  T
C2158      N2163   1.158       .  T
C2159      N2161   1.157       .  T
C2160      N2162   1.157       .  T
C2165      C2166   1.412   1_554  A
C2165      C2170   1.415       .  A
C2166      C2167   1.398       .  A
C2166      C2171   1.440       .  S
C2167      C2168   1.401       .  A
C2167      C2174   1.454       .  S
C2168      C2169   1.400       .  A
C2169      C2170   1.391   1_556  A
C2169      C2172   1.448       .  S
C2170      C2173   1.456       .  S
C2171      N2178   1.153   1_556  T
C2172      N2177   1.155       .  T
C2173      N2175   1.157       .  T
C2174      N2176   1.157       .  T
C2179      C2180   1.416       .  A
C2179      C2184   1.410       .  A
C2180      C2181   1.417       .  A
C2180      C2185   1.449       .  S
C2181      C2182   1.410       .  A
C2181      C2188   1.448       .  S
C2182      C2183   1.416       .  A
C2183      C2184   1.420       .  A
C2183      C2186   1.449       .  S
C2184      C2187   1.448       .  S
C2185      N2192   1.157       .  T
C2186      N2191   1.157       .  T
C2187      N2189   1.158       .  T
C2188      N2190   1.157       .  T
C2193      C2194   1.402       .  A
C2193      C2198   1.414       .  A
C2194      C2195   1.405       .  A
C2194      C2199   1.442       .  S
C2195      C2196   1.416       .  A
C2195      C2202   1.451       .  S
C2196      C2197   1.418       .  A
C2197      C2198   1.423       .  A
C2197      C2200   1.447       .  S
C2198      C2201   1.446       .  S
C2199      N2206   1.155       .  T
C2200      N2205   1.157       .  T
C2201      N2203   1.157       .  T
C2202      N2204   1.157       .  T
C2207      C2208   1.415   1_556  A
C2207      C2212   1.427       .  A
C2208      C2209   1.421       .  A
C2208      C2213   1.451       .  S
C2209      C2210   1.424       .  A
C2209      C2216   1.452       .  S
C2210      C2211   1.414       .  A
C2211      C2212   1.421   1_554  A
C2211      C2982   1.450       .  S
C2212      C2215   1.453       .  S
C2213      N2220   1.158       .  T
C2214      C2979   1.449       .  S
C2214      N2219   1.156   1_565  T
C2215      N2217   1.157       .  T
C2216      N2218   1.157       .  T
C2221      C2222   1.418       .  A
C2221      C2226   1.418       .  A
C2222      C2223   1.410       .  A
C2222      C2227   1.443       .  S
C2223      C2224   1.410       .  A
C2223      C2230   1.453       .  S
C2224      C2225   1.416       .  A
C2225      C2226   1.420       .  A
C2225      C2228   1.450       .  S
C2226      C2229   1.450       .  S
C2227      N2234   1.155       .  T
C2228      N2233   1.158       .  T
C2229      N2231   1.157       .  T
C2230      N2232   1.157       .  T
C2235      C2236   1.428       .  A
C2235      C2240   1.411       .  A
C2236      C2237   1.407       .  A
C2236      C2241   1.454       .  S
C2237      C2238   1.408       .  A
C2237      C2244   1.453       .  S
C2238      C2239   1.412       .  A
C2239      C2240   1.397       .  A
C2239      C2242   1.454       .  S
C2240      C2243   1.451       .  S
C2241      N2248   1.157       .  T
C2242      N2247   1.157       .  T
C2243      N2245   1.158       .  T
C2244      N2246   1.158       .  T
C2249      C2250   1.415       .  A
C2249      C2254   1.417       .  A
C2250      C2251   1.402       .  A
C2250      C2255   1.455       .  S
C2251      C2252   1.420       .  A
C2251      C2258   1.456       .  S
C2252      C2253   1.415       .  A
C2253      C2254   1.428       .  A
C2253      C2256   1.447       .  S
C2254      C2257   1.447       .  S
C2255      N2262   1.157       .  T
C2256      N2261   1.157       .  T
C2257      N2259   1.157       .  T
C2258      N2260   1.157       .  T
C2263      C2264   1.412       .  A
C2263      C2268   1.408       .  A
C2264      C2265   1.412       .  A
C2264      C2269   1.450       .  S
C2265      C2266   1.411       .  A
C2265      C2272   1.450       .  S
C2266      C2267   1.418       .  A
C2267      C2268   1.408       .  A
C2267      C2270   1.452       .  S
C2268      C2271   1.452       .  S
C2269      N2276   1.157       .  T
C2270      N2275   1.158       .  T
C2271      N2273   1.157       .  T
C2272      N2274   1.157       .  T
C2277      C2278   1.411       .  A
C2277      C2282   1.410       .  A
C2278      C2279   1.423       .  A
C2278      C2283   1.449       .  S
C2279      C2280   1.425       .  A
C2279      C2286   1.450       .  S
C2280      C2281   1.415       .  A
C2281      C2282   1.412       .  A
C2281      C2284   1.448       .  S
C2282      C2285   1.450       .  S
C2283      N2290   1.157       .  T
C2284      N2289   1.156       .  T
C2285      N2287   1.157       .  T
C2286      N2288   1.157   1_655  T
C2291      C2292   1.416       .  A
C2291      C2296   1.416       .  A
C2292      C2293   1.415       .  A
C2292      C2297   1.453       .  S
C2293      C2294   1.423       .  A
C2293      C2300   1.451       .  S
C2294      C2295   1.424       .  A
C2295      C2296   1.415       .  A
C2296      C2299   1.453       .  S
C2297      N2304   1.158       .  T
C2298      N2303   1.157       .  T
C2299      N2301   1.157       .  T
C2300      N2302   1.157       .  T
Fe2305     O2321   2.103       .  S
Fe2305     O2311   2.016       .  S
Fe2305     O2318   2.038       .  S
Fe2305     O2310   2.124       .  S
Fe2305     O2316   1.939       .  S
Fe2306     O2309   2.120       .  S
Fe2306     O2313   2.066       .  S
Fe2306     O2317   2.106       .  S
Fe2306     O2322   2.083       .  S
Fe2306     O2316   1.938       .  S
Fe2307     O2325   2.064       .  S
Fe2307     O2312   2.066       .  S
Fe2307     O2319   2.073       .  S
Fe2307     O2308   2.054       .  S
Fe2307     O2316   1.914       .  S
O2308      C2315   1.268       .  A
O2309      C2323   1.279       .  A
O2310      C2315   1.278       .  A
O2311      C2314   1.260       .  A
O2312      C2324   1.271       .  A
O2313      C2326   1.274       .  A
C2314      O2319   1.270       .  A
C2314      C3003   1.481       .  S
C2315      C3017   1.518       .  S
O2317      C2320   1.276       .  A
O2318      C2320   1.264       .  A
C2320      C3034   1.483       .  S
O2321      C2326   1.279       .  A
O2322      C2324   1.275       .  A
C2323      O2325   1.269       .  A
C2323      C3059   1.527       .  S
C2324      C3045   1.478       .  S
C2326      C2989   1.511       .  S
Fe2327     O2343   2.042       .  S
Fe2327     O2333   2.029       .  S
Fe2327     O2340   2.042       .  S
Fe2327     O2332   2.061       .  S
Fe2327     O2338   1.943       .  S
Fe2328     O2331   2.063       .  S
Fe2328     O2335   2.145       .  S
Fe2328     O2339   2.092       .  S
Fe2328     O2344   2.166       .  S
Fe2328     O2338   1.944       .  S
Fe2329     O2347   2.105       .  S
Fe2329     O2334   2.039       .  S
Fe2329     O2341   2.044       .  S
Fe2329     O2330   2.102       .  S
Fe2329     O2338   1.945       .  S
O2330      C2337   1.275       .  A
O2331      C2345   1.266       .  A
O2332      C2337   1.268       .  A
O2333      C2336   1.262       .  A
O2334      C2346   1.267       .  A
O2335      C2348   1.287       .  A
C2336      O2341   1.266       .  A
C2336      C2936   1.442       .  S
C2337      C2947   1.491       .  S
O2339      C2342   1.276       .  A
O2340      C2342   1.264       .  A
C2342      C3031   1.478       .  S
O2343      C2348   1.265       .  A
O2344      C2346   1.292       .  A
C2345      O2347   1.275       .  A
C2345      C2975   1.512       .  S
C2346      C2961   1.505       .  S
C2348      C2919   1.524       .  S
Fe2349     O2355   2.044       .  S
Fe2349     O2362   2.057       .  S
Fe2349     O2354   2.099       .  S
Fe2349     O2360   1.934       .  S
Fe2350     O2353   2.028       .  S
Fe2350     O2357   2.120       .  S
Fe2350     O2361   2.052       .  S
Fe2350     O2366   2.174       .  S
Fe2350     O2360   1.955       .  S
Fe2351     O2369   2.129       .  S
Fe2351     O2356   2.022       .  S
Fe2351     O2363   2.032       .  S
Fe2351     O2352   2.086       .  S
Fe2351     O2360   1.919       .  S
O2352      C2359   1.269       .  A
O2353      C2367   1.257       .  A
O2354      C2359   1.275       .  A
O2355      C2358   1.270       .  A
O2356      C2368   1.256       .  A
C2358      O2363   1.270       .  A
C2358      C2908   1.445       .  S
C2359      C2863   1.502       .  S
O2361      C2364   1.269       .  A
O2362      C2364   1.270       .  A
C2364      C2880   1.461       .  S
O2365      C2370   1.266       .  A
O2366      C2368   1.287       .  A
C2367      O2369   1.277       .  A
C2367      C2849   1.502       .  S
C2368      C3020   1.506       .  S
C2370      C2894   1.496       .  S
Fe2371     O2377   2.012   1_565  S
Fe2371     O2384   2.031       .  S
Fe2371     O2376   2.090       .  S
Fe2371     O2382   1.948       .  S
Fe2372     O2375   2.076       .  S
Fe2372     O2379   2.088       .  S
Fe2372     O2383   2.116       .  S
Fe2372     O2388   2.106       .  S
Fe2372     O2382   1.955       .  S
Fe2373     O2391   2.100       .  S
Fe2373     O2378   2.089       .  S
Fe2373     O2385   2.060       .  S
Fe2373     O2374   2.088       .  S
Fe2373     O2382   1.923       .  S
O2374      C2381   1.275       .  A
O2375      C2389   1.265       .  A
O2376      C2381   1.273       .  A
O2377      C2380   1.258       .  A
O2378      C2390   1.284       .  A
C2380      O2385   1.274   1_545  A
C2380      C2821   1.460       .  S
C2381      C2964   1.502       .  S
O2383      C2386   1.271       .  A
O2384      C2386   1.257       .  A
C2386      C2877   1.493       .  S
O2387      C2392   1.281       .  A
O2388      C2390   1.292       .  A
C2389      O2391   1.268       .  A
C2389      C2835   1.530       .  S
C2390      C2796   1.504       .  S
C2392      C2807   1.534       .  S
Fe2393     O2399   2.058       .  S
Fe2393     O2406   2.072       .  S
Fe2393     O2398   2.052       .  S
Fe2393     O2404   1.953       .  S
Fe2394     O2397   2.049       .  S
Fe2394     O2401   2.137       .  S
Fe2394     O2405   2.078       .  S
Fe2394     O2410   2.159       .  S
Fe2394     O2404   1.947       .  S
Fe2395     O2413   2.121       .  S
Fe2395     O2400   2.045       .  S
Fe2395     O2407   2.042       .  S
Fe2395     O2396   2.115       .  S
Fe2395     O2404   1.950       .  S
O2396      C2403   1.282       .  A
O2397      C2411   1.265       .  A
O2398      C2403   1.270       .  A
O2399      C2402   1.265       .  A
O2400      C2412   1.266       .  A
C2402      O2407   1.262       .  A
C2402      C2765   1.457       .  S
C2403      C3048   1.490       .  S
O2405      C2408   1.273       .  A
O2406      C2408   1.267       .  A
C2408      C2737   1.486       .  S
O2409      C2414   1.270       .  A
O2410      C2412   1.289       .  A
C2411      O2413   1.280       .  A
C2411      C2782   1.514       .  S
C2412      C2866   1.510       .  S
C2414      C2751   1.511       .  S
Fe2415     O2421   2.007       .  S
Fe2415     O2428   2.034       .  S
Fe2415     O2420   2.092       .  S
Fe2415     O2426   1.940       .  S
Fe2416     O2419   2.066       .  S
Fe2416     O2423   2.081       .  S
Fe2416     O2427   2.083       .  S
Fe2416     O2432   2.098       .  S
Fe2416     O2426   1.960       .  S
Fe2417     O2435   2.064       .  S
Fe2417     O2422   2.067       .  S
Fe2417     O2429   2.044       .  S
Fe2417     O2418   2.068       .  S
Fe2417     O2426   1.950       .  S
O2418      C2425   1.273       .  A
O2419      C2433   1.266       .  A
O2420      C2425   1.274       .  A
O2421      C2424   1.260       .  A
O2422      C2434   1.273       .  A
C2424      O2429   1.264       .  A
C2424      C2723   1.455       .  S
C2425      C2793   1.522       .  S
O2427      C2430   1.267       .  A
O2428      C2430   1.259       .  A
C2430      C2740   1.485       .  S
O2431      C2436   1.274       .  A
O2432      C2434   1.281       .  A
C2433      O2435   1.265       .  A
C2433      C2695   1.505       .  S
C2434      C2950   1.485       .  S
C2436      C2709   1.496       .  S
Fe2437     O2453   2.038       .  S
Fe2437     O2443   2.022       .  S
Fe2437     O2450   2.067       .  S
Fe2437     O2442   2.055       .  S
Fe2437     O2448   1.959       .  S
Fe2438     O2441   2.110       .  S
Fe2438     O2445   2.040       .  S
Fe2438     O2449   2.106       .  S
Fe2438     O2454   2.043       .  S
Fe2438     O2448   1.951       .  S
Fe2439     O2457   2.066       .  S
Fe2439     O2444   2.156       .  S
Fe2439     O2451   2.132       .  S
Fe2439     O2440   2.089       .  S
Fe2439     O2448   1.955       .  S
O2440      C2447   1.274       .  A
O2441      C2455   1.275       .  A
O2442      C2447   1.266       .  A
O2443      C2446   1.262       .  A
O2444      C2456   1.291       .  A
O2445      C2458   1.264       .  A
C2446      O2451   1.285       .  A
C2446      C2852   1.500       .  S
C2447      C2670   1.487       .  S
O2449      C2452   1.276       .  A
O2450      C2452   1.269       .  A
C2452      C2653   1.494       .  S
O2453      C2458   1.266       .  A
O2454      C2456   1.268       .  A
C2455      O2457   1.264       .  A
C2455      C2754   1.524       .  S
C2456      C2681   1.498       .  S
C2458      C3006   1.452       .  S
Fe2459     O2475   2.025       .  S
Fe2459     O2465   2.069       .  S
Fe2459     O2472   2.068       .  S
Fe2459     O2464   2.026       .  S
Fe2459     O2470   1.976       .  S
Fe2460     O2463   2.098       .  S
Fe2460     O2467   2.048       .  S
Fe2460     O2471   2.105       .  S
Fe2460     O2476   2.046       .  S
Fe2460     O2470   1.959       .  S
Fe2461     O2479   2.084       .  S
Fe2461     O2466   2.103       .  S
Fe2461     O2473   2.089       .  S
Fe2461     O2462   2.091       .  S
Fe2461     O2470   1.977       .  S
O2462      C2469   1.269       .  A
O2463      C2477   1.273       .  A
O2464      C2469   1.257       .  A
O2465      C2468   1.272       .  A
O2466      C2478   1.281       .  A
O2467      C2480   1.264       .  A
C2468      O2473   1.278       .  A
C2468      C2698   1.492       .  S
C2469      C2667   1.486       .  S
O2471      C2474   1.279       .  A
O2472      C2474   1.267       .  A
C2474      C2628   1.494       .  S
O2475      C2480   1.261       .  A
O2476      C2478   1.271       .  A
C2477      O2479   1.268       .  A
C2477      C2810   1.526   1_554  S
C2478      C2639   1.495       .  S
C2480      C2933   1.461       .  S
Fe2481     O2497   2.019       .  S
Fe2481     O2494   2.060       .  S
Fe2481     O2486   2.051       .  S
Fe2481     O2492   1.963       .  S
Fe2482     O2485   2.076       .  S
Fe2482     O2489   2.040       .  S
Fe2482     O2493   2.074       .  S
Fe2482     O2498   2.030       .  S
Fe2482     O2492   1.971       .  S
Fe2483     O2501   2.049       .  S
Fe2483     O2488   2.137       .  S
Fe2483     O2495   2.133       .  S
Fe2483     O2484   2.096       .  S
Fe2483     O2492   1.961       .  S
O2484      C2491   1.270       .  A
O2485      C2499   1.266       .  A
O2486      C2491   1.261       .  A
O2487      C2490   1.270       .  A
O2488      C2500   1.288       .  A
O2489      C2502   1.261       .  A
C2490      C2779   1.513       .  S
C2491      C2614   1.494       .  S
O2493      C2496   1.273       .  A
O2494      C2496   1.273       .  A
C2496      C2600   1.482       .  S
O2497      C2502   1.258       .  A
O2498      C2500   1.267       .  A
C2499      O2501   1.263       .  A
C2499      C2992   1.504       .  S
C2500      C2656   1.490       .  S
C2502      C2905   1.443       .  S
Fe2503     O2519   2.054       .  S
Fe2503     O2516   2.058       .  S
Fe2503     O2508   2.064       .  S
Fe2503     O2514   1.952       .  S
Fe2504     O2507   2.086       .  S
Fe2504     O2511   2.010       .  S
Fe2504     O2515   2.084       .  S
Fe2504     O2520   2.007       .  S
Fe2504     O2514   1.940       .  S
Fe2505     O2523   2.042       .  S
Fe2505     O2510   2.170       .  S
Fe2505     O2517   2.152       .  S
Fe2505     O2506   2.062       .  S
Fe2505     O2514   1.938       .  S
O2506      C2513   1.267       .  A
O2507      C2521   1.269       .  A
O2508      C2513   1.266       .  A
O2509      C2512   1.274       .  A
O2510      C2522   1.293       .  A
O2511      C2524   1.256       .  A
C2512      C2978   1.516       .  S
C2513      C2611   1.485       .  S
O2515      C2518   1.277       .  A
O2516      C2518   1.270       .  A
C2518      C2642   1.490       .  S
O2519      C2524   1.266       .  A
O2520      C2522   1.262       .  A
C2521      O2523   1.261       .  A
C2521      C2712   1.497   1_554  S
C2522      C2583   1.501       .  S
C2524      C2824   1.439       .  S
Fe2525     O2541   2.018       .  S
Fe2525     O2538   2.069       .  S
Fe2525     O2530   2.024       .  S
Fe2525     O2536   1.949       .  S
Fe2526     O2529   2.115       .  S
Fe2526     O2533   2.067       .  S
Fe2526     O2537   2.121       .  S
Fe2526     O2542   2.069       .  S
Fe2526     O2536   1.948       .  S
Fe2527     O2545   2.077       .  S
Fe2527     O2532   2.092       .  S
Fe2527     O2539   2.084       .  S
Fe2527     O2528   2.105       .  S
Fe2527     O2536   1.963       .  S
O2528      C2535   1.275       .  A
O2529      C2543   1.278       .  A
O2530      C2535   1.261       .  A
O2531      C2534   1.273       .  A
O2532      C2544   1.280       .  A
O2533      C2546   1.272       .  A
C2534      C2838   1.516       .  S
C2535      C2569   1.484   1_655  S
O2537      C2540   1.281       .  A
O2538      C2540   1.266       .  A
C2540      C2586   1.517       .  S
O2541      C2546   1.264       .  A
O2542      C2544   1.274       .  A
C2543      O2545   1.269       .  A
C2543      C2922   1.535   1_554  S
C2544      C2625   1.483       .  S
C2546      C2726   1.471       .  S
Fe2547     O2563   2.009       .  S
Fe2547     O2560   2.095       .  S
Fe2547     O2552   2.038       .  S
Fe2547     O2558   1.933       .  S
Fe2548     O2551   2.085       .  S
Fe2548     O2555   2.065       .  S
Fe2548     O2559   2.072       .  S
Fe2548     O2564   2.098       .  S
Fe2548     O2558   1.918       .  S
Fe2549     O2567   2.070       .  S
Fe2549     O2554   2.076       .  S
Fe2549     O2561   2.061       .  S
Fe2549     O2550   2.094       .  S
Fe2549     O2558   1.955       .  S
O2550      C2557   1.265       .  A
O2551      C2565   1.264       .  A
O2552      C2557   1.258       .  A
O2553      C2556   1.284   1_655  A
O2554      C2566   1.285       .  A
O2555      C2568   1.271       .  A
C2556      C3062   1.529   1_455  S
C2557      C2572   1.479       .  S
O2559      C2562   1.275       .  A
O2560      C2562   1.276       .  A
C2562      C2684   1.499       .  S
O2563      C2568   1.257       .  A
O2564      C2566   1.286       .  A
C2565      O2567   1.261       .  A
C2565      C2891   1.515       .  S
C2566      C2597   1.484       .  S
C2568      C2768   1.453       .  S
C2569      C2574   1.413   1_455  A
C2570      C2571   1.406       .  A
C2570      C2575   1.452       .  S
C2571      C2572   1.405       .  A
C2571      C2578   1.452       .  S
C2573      C2574   1.415   1_455  A
C2573      C2576   1.450   1_455  S
C2574      C2577   1.450       .  S
C2575      N2582   1.157       .  T
C2576      N2581   1.157       .  T
C2577      N2579   1.158       .  T
C2578      N2580   1.158       .  T
C2583      C2584   1.417       .  A
C2583      C2588   1.408       .  A
C2584      C2585   1.421       .  A
C2584      C2589   1.450       .  S
C2585      C2586   1.411       .  A
C2585      C2592   1.447       .  S
C2586      C2587   1.427       .  A
C2587      C2588   1.423       .  A
C2587      C2590   1.449       .  S
C2588      C2591   1.448       .  S
C2589      N2596   1.157       .  T
C2590      N2595   1.158   1_655  T
C2591      N2593   1.157       .  T
C2592      N2594   1.156       .  T
C2597      C2598   1.408       .  A
C2597      C2602   1.408       .  A
C2598      C2599   1.403       .  A
C2598      C2603   1.440       .  S
C2599      C2600   1.408       .  A
C2599      C2606   1.450       .  S
C2600      C2601   1.420       .  A
C2601      C2602   1.417       .  A
C2601      C2604   1.450       .  S
C2602      C2605   1.449       .  S
C2603      N2610   1.152       .  T
C2604      N2609   1.157       .  T
C2605      N2607   1.157       .  T
C2606      N2608   1.156       .  T
C2611      C2616   1.411       .  A
C2612      C2613   1.415       .  A
C2612      C2617   1.449       .  S
C2613      C2614   1.408       .  A
C2613      C2620   1.448       .  S
C2615      C2616   1.408       .  A
C2615      C2618   1.449       .  S
C2616      C2619   1.451       .  S
C2617      N2624   1.157       .  T
C2618      N2623   1.156       .  T
C2619      N2621   1.157       .  T
C2620      N2622   1.156       .  T
C2625      C2626   1.410       .  A
C2625      C2630   1.410       .  A
C2626      C2627   1.410       .  A
C2626      C2631   1.449       .  S
C2627      C2628   1.409       .  A
C2627      C2634   1.447       .  S
C2628      C2629   1.411       .  A
C2629      C2630   1.418       .  A
C2629      C2632   1.447       .  S
C2630      C2633   1.446       .  S
C2631      N2638   1.157       .  T
C2632      N2637   1.157       .  T
C2633      N2635   1.157       .  T
C2634      N2636   1.157       .  T
C2639      C2640   1.416       .  A
C2639      C2644   1.415       .  A
C2640      C2641   1.400       .  A
C2640      C2645   1.447       .  S
C2641      C2642   1.408       .  A
C2641      C2648   1.453       .  S
C2642      C2643   1.420       .  A
C2643      C2644   1.423       .  A
C2643      C2646   1.450       .  S
C2644      C2647   1.449       .  S
C2645      N2652   1.153       .  T
C2646      N2651   1.157       .  T
C2647      N2649   1.157       .  T
C2648      N2650   1.155       .  T
C2653      C2654   1.416       .  A
C2653      C2658   1.408       .  A
C2654      C2655   1.416       .  A
C2654      C2659   1.450       .  S
C2655      C2656   1.412       .  A
C2655      C2662   1.450       .  S
C2656      C2657   1.416       .  A
C2657      C2658   1.417       .  A
C2657      C2660   1.448       .  S
C2658      C2661   1.448       .  S
C2659      N2666   1.157       .  T
C2660      N2665   1.157       .  T
C2661      N2663   1.157       .  T
C2662      N2664   1.157       .  T
C2667      C2668   1.411       .  A
C2667      C2672   1.418       .  A
C2668      C2669   1.414       .  A
C2668      C2673   1.451       .  S
C2669      C2670   1.416       .  A
C2669      C2676   1.448       .  S
C2670      C2671   1.404       .  A
C2671      C2672   1.408       .  A
C2671      C2674   1.445       .  S
C2672      C2675   1.451       .  S
C2673      N2680   1.157       .  T
C2674      N2679   1.155       .  T
C2675      N2677   1.157       .  T
C2676      N2678   1.157       .  T
C2681      C2682   1.410       .  A
C2681      C2686   1.420       .  A
C2682      C2683   1.407       .  A
C2682      C2687   1.444       .  S
C2683      C2684   1.414       .  A
C2683      C2690   1.453       .  S
C2684      C2685   1.414       .  A
C2685      C2686   1.423       .  A
C2685      C2688   1.449       .  S
C2686      C2689   1.444       .  S
C2687      N2694   1.155       .  T
C2688      N2693   1.158       .  T
C2689      N2691   1.156       .  T
C2690      N2692   1.157       .  T
C2695      C2696   1.421   1_556  A
C2695      C2700   1.417       .  A
C2696      C2697   1.418       .  A
C2696      C2701   1.451       .  S
C2697      C2698   1.413       .  A
C2697      C2704   1.449       .  S
C2698      C2699   1.414       .  A
C2699      C2700   1.407   1_554  A
C2699      C2702   1.446   1_554  S
C2700      C2703   1.453       .  S
C2701      N2708   1.158       .  T
C2702      N2707   1.155       .  T
C2703      N2705   1.158       .  T
C2704      N2706   1.157       .  T
C2709      C2710   1.413       .  A
C2709      C2714   1.414       .  A
C2710      C2711   1.413       .  A
C2710      C2715   1.449       .  S
C2711      C2712   1.416       .  A
C2711      C2718   1.450       .  S
C2712      C2713   1.420       .  A
C2713      C2714   1.412       .  A
C2713      C2716   1.453   1_556  S
C2714      C2717   1.449   1_655  S
C2715      N2722   1.156       .  T
C2716      N2721   1.157       .  T
C2718      N2720   1.158       .  T
C2723      C2724   1.405       .  A
C2723      C2728   1.411       .  A
C2725      C2726   1.419       .  A
C2725      C2732   1.454       .  S
C2727      C2728   1.400   1_554  A
C2727      C2730   1.454       .  S
C2728      C2731   1.454       .  S
C2729      N2736   1.155       .  T
C2730      N2735   1.157       .  T
C2731      N2733   1.158       .  T
C2732      N2734   1.158       .  T
C2737      C2738   1.403       .  A
C2738      C2743   1.451       .  S
C2739      C2740   1.418       .  A
C2739      C2746   1.453       .  S
C2740      C2741   1.414       .  A
C2741      C2742   1.414       .  A
C2741      C2744   1.451       .  S
C2742      C2745   1.451       .  S
C2743      N2750   1.155       .  T
C2744      N2749   1.158       .  T
C2745      N2747   1.157       .  T
C2746      N2748   1.157       .  T
C2751      C2752   1.418       .  A
C2751      C2756   1.413       .  A
C2752      C2753   1.421       .  A
C2752      C2757   1.451       .  S
C2753      C2754   1.420       .  A
C2753      C2760   1.451       .  S
C2754      C2755   1.428       .  A
C2755      C2756   1.422       .  A
C2755      C2758   1.451       .  S
C2756      C2759   1.449       .  S
C2757      N2764   1.158       .  T
C2758      N2763   1.158       .  T
C2760      N2762   1.157       .  T
C2765      C2766   1.408       .  A
C2766      C2767   1.402       .  A
C2766      C2771   1.446       .  S
C2767      C2774   1.447       .  S
C2768      C2769   1.417       .  A
C2769      C2770   1.400       .  A
C2769      C2772   1.450       .  S
C2770      C2773   1.451       .  S
C2771      N2778   1.156       .  T
C2772      N2777   1.157       .  T
C2773      N2775   1.157       .  T
C2774      N2776   1.156       .  T
C2779      C2780   1.425       .  A
C2779      C2784   1.417       .  A
C2780      C2781   1.421       .  A
C2780      C2785   1.450       .  S
C2781      C2782   1.416       .  A
C2781      C2788   1.452       .  S
C2782      C2783   1.424       .  A
C2783      C2784   1.419       .  A
C2783      C2786   1.453       .  S
C2785      N2792   1.158       .  T
C2786      N2791   1.158       .  T
C2787      N2789   1.156       .  T
C2788      N2790   1.157       .  T
C2793      C2794   1.422       .  A
C2793      C2798   1.430       .  A
C2794      C2795   1.413       .  A
C2794      C2799   1.453       .  S
C2795      C2796   1.414       .  A
C2795      C2802   1.449       .  S
C2796      C2797   1.411       .  A
C2797      C2798   1.424       .  A
C2797      C2800   1.451       .  S
C2798      C2801   1.450       .  S
C2799      N2806   1.157       .  T
C2800      N2805   1.157       .  T
C2801      N2803   1.158       .  T
C2802      N2804   1.155       .  T
C2807      C2808   1.430       .  A
C2807      C2812   1.421       .  A
C2808      C2809   1.425       .  A
C2808      C2813   1.449       .  S
C2809      C2810   1.416       .  A
C2809      C2816   1.452       .  S
C2810      C2811   1.424       .  A
C2811      C2812   1.424       .  A
C2811      C2814   1.452   1_556  S
C2812      C2815   1.451       .  S
C2813      N2820   1.157       .  T
C2814      N2819   1.157       .  T
C2816      N2818   1.158       .  T
C2821      C2826   1.409       .  A
C2822      C2823   1.393   1_556  A
C2822      C2827   1.452   1_556  S
C2823      C2824   1.408       .  A
C2823      C2830   1.445       .  S
C2825      C2826   1.401       .  A
C2825      C2828   1.451       .  S
C2826      C2829   1.454       .  S
C2827      N2834   1.157       .  T
C2828      N2833   1.157       .  T
C2829      N2831   1.157       .  T
C2830      N2832   1.156       .  T
C2835      C2836   1.425   1_556  A
C2835      C2840   1.425       .  A
C2836      C2837   1.426       .  A
C2836      C2841   1.449       .  S
C2837      C2838   1.418       .  A
C2837      C2844   1.450       .  S
C2838      C2839   1.416       .  A
C2839      C2840   1.416   1_554  A
C2839      C2842   1.447       .  S
C2840      C2843   1.454       .  S
C2841      N2848   1.158       .  T
C2843      N2845   1.157       .  T
C2844      N2846   1.157       .  T
C2849      C2850   1.421       .  A
C2849      C2854   1.412       .  A
C2850      C2851   1.414       .  A
C2850      C2855   1.454       .  S
C2851      C2852   1.412       .  A
C2851      C2858   1.449       .  S
C2852      C2853   1.424       .  A
C2853      C2854   1.418       .  A
C2853      C2856   1.451       .  S
C2854      C2857   1.451       .  S
C2855      N2862   1.158       .  T
C2856      N2861   1.157       .  T
C2857      N2859   1.157       .  T
C2858      N2860   1.156       .  T
C2863      C2864   1.416       .  A
C2863      C2868   1.407       .  A
C2864      C2865   1.423       .  A
C2864      C2869   1.448       .  S
C2865      C2866   1.415       .  A
C2865      C2872   1.448       .  S
C2866      C2867   1.418       .  A
C2867      C2868   1.420       .  A
C2867      C2870   1.443       .  S
C2868      C2871   1.449       .  S
C2869      N2876   1.157       .  T
C2870      N2875   1.156       .  T
C2871      N2873   1.157       .  T
C2872      N2874   1.157       .  T
C2877      C2882   1.413       .  A
C2878      C2879   1.401       .  A
C2878      C2883   1.449       .  S
C2879      C2880   1.401       .  A
C2879      C2886   1.453       .  S
C2881      C2882   1.414       .  A
C2881      C2884   1.451       .  S
C2882      C2885   1.449       .  S
C2883      N2890   1.156       .  T
C2884      N2889   1.157       .  T
C2885      N2887   1.158       .  T
C2886      N2888   1.157       .  T
C2891      C2892   1.422       .  A
C2891      C2896   1.427       .  A
C2892      C2893   1.417       .  A
C2892      C2897   1.451       .  S
C2893      C2894   1.415       .  A
C2893      C2900   1.451       .  S
C2894      C2895   1.409       .  A
C2895      C2896   1.416       .  A
C2895      C2898   1.451       .  S
C2896      C2899   1.451       .  S
C2897      N2904   1.157       .  T
C2898      N2903   1.157   1_565  T
C2899      N2901   1.158       .  T
C2900      N2902   1.158       .  T
C2905      C2906   1.410       .  A
C2906      C2907   1.401       .  A
C2906      C2911   1.452       .  S
C2907      C2914   1.450       .  S
C2908      C2909   1.410       .  A
C2909      C2910   1.395       .  A
C2909      C2912   1.454       .  S
C2910      C2913   1.444       .  S
C2911      N2918   1.158       .  T
C2912      N2917   1.157       .  T
C2913      N2915   1.153       .  T
C2914      N2916   1.157       .  T
C2919      C2920   1.413       .  A
C2919      C2924   1.425       .  A
C2920      C2921   1.423       .  A
C2920      C2925   1.448       .  S
C2921      C2922   1.432       .  A
C2921      C2928   1.452   1_556  S
C2922      C2923   1.423       .  A
C2923      C2924   1.425       .  A
C2923      C2926   1.451       .  S
C2924      C2927   1.453       .  S
C2925      N2932   1.156       .  T
C2926      N2931   1.158       .  T
C2927      N2929   1.158       .  T
C2928      N2930   1.158       .  T
C2933      C2934   1.412   1_554  A
C2933      C2938   1.412       .  A
C2934      C2935   1.399       .  A
C2934      C2939   1.443       .  S
C2935      C2936   1.401       .  A
C2935      C2942   1.453       .  S
C2936      C2937   1.403       .  A
C2937      C2938   1.398   1_556  A
C2937      C2940   1.448       .  S
C2938      C2941   1.453       .  S
C2939      N2946   1.153   1_556  T
C2940      N2945   1.155       .  T
C2941      N2943   1.158       .  T
C2942      N2944   1.158       .  T
C2947      C2948   1.417       .  A
C2947      C2952   1.410       .  A
C2948      C2949   1.413       .  A
C2948      C2953   1.450       .  S
C2949      C2950   1.408       .  A
C2949      C2956   1.450       .  S
C2950      C2951   1.414       .  A
C2951      C2952   1.416       .  A
C2951      C2954   1.450       .  S
C2952      C2955   1.450       .  S
C2953      N2960   1.157       .  T
C2954      N2959   1.157       .  T
C2955      N2957   1.157       .  T
C2956      N2958   1.157       .  T
C2961      C2962   1.413       .  A
C2961      C2966   1.418       .  A
C2962      C2963   1.417       .  A
C2962      C2967   1.445       .  S
C2963      C2964   1.413       .  A
C2963      C2970   1.449       .  S
C2964      C2965   1.413       .  A
C2965      C2966   1.422       .  A
C2965      C2968   1.450       .  S
C2966      C2969   1.447       .  S
C2967      N2974   1.156       .  T
C2968      N2973   1.157       .  T
C2969      N2971   1.157       .  T
C2970      N2972   1.156       .  T
C2975      C2976   1.416   1_556  A
C2975      C2980   1.422       .  A
C2976      C2977   1.419       .  A
C2976      C2981   1.452       .  S
C2977      C2978   1.423       .  A
C2977      C2984   1.451       .  S
C2978      C2979   1.418       .  A
C2979      C2980   1.418   1_554  A
C2980      C2983   1.453       .  S
C2981      N2988   1.157       .  T
C2982      N2987   1.157       .  T
C2983      N2985   1.158       .  T
C2984      N2986   1.157       .  T
C2989      C2990   1.417       .  A
C2989      C2994   1.416       .  A
C2990      C2991   1.410       .  A
C2990      C2995   1.443       .  S
C2991      C2992   1.417       .  A
C2991      C2998   1.456       .  S
C2992      C2993   1.420       .  A
C2993      C2994   1.420       .  A
C2993      C2996   1.450       .  S
C2994      C2997   1.449       .  S
C2995      N3002   1.154       .  T
C2996      N3001   1.158       .  T
C2997      N2999   1.156       .  T
C2998      N3000   1.157       .  T
C3003      C3004   1.419       .  A
C3003      C3008   1.419       .  A
C3004      C3005   1.401       .  A
C3004      C3009   1.447       .  S
C3005      C3006   1.404       .  A
C3005      C3012   1.454       .  S
C3006      C3007   1.402       .  A
C3007      C3008   1.400       .  A
C3007      C3010   1.451       .  S
C3008      C3011   1.450       .  S
C3009      N3016   1.154       .  T
C3010      N3015   1.155       .  T
C3011      N3013   1.157       .  T
C3012      N3014   1.158       .  T
C3017      C3018   1.421       .  A
C3017      C3022   1.428       .  A
C3018      C3019   1.401       .  A
C3018      C3023   1.456       .  S
C3019      C3020   1.418       .  A
C3019      C3026   1.458       .  S
C3020      C3021   1.413       .  A
C3021      C3022   1.432       .  A
C3021      C3024   1.448       .  S
C3022      C3025   1.448       .  S
C3023      N3030   1.158       .  T
C3024      N3029   1.157       .  T
C3025      N3027   1.157       .  T
C3026      N3028   1.157       .  T
C3031      C3032   1.416       .  A
C3031      C3036   1.407       .  A
C3032      C3033   1.414       .  A
C3032      C3037   1.451       .  S
C3033      C3034   1.409       .  A
C3033      C3040   1.451       .  S
C3034      C3035   1.417       .  A
C3035      C3036   1.408       .  A
C3035      C3038   1.452       .  S
C3036      C3039   1.451       .  S
C3037      N3044   1.158       .  T
C3038      N3043   1.157       .  T
C3039      N3041   1.156       .  T
C3040      N3042   1.157       .  T
C3045      C3046   1.407       .  A
C3045      C3050   1.409       .  A
C3046      C3047   1.415       .  A
C3046      C3051   1.451       .  S
C3047      C3048   1.421       .  A
C3047      C3054   1.451       .  S
C3048      C3049   1.410       .  A
C3049      C3050   1.411       .  A
C3049      C3052   1.446       .  S
C3050      C3053   1.450       .  S
C3051      N3058   1.157       .  T
C3052      N3057   1.156       .  T
C3053      N3055   1.157       .  T
C3054      N3056   1.157   1_655  T
C3059      C3060   1.426       .  A
C3059      C3064   1.422       .  A
C3060      C3061   1.422       .  A
C3060      C3065   1.452       .  S
C3061      C3062   1.422       .  A
C3061      C3068   1.452       .  S
C3062      C3063   1.427       .  A
C3063      C3064   1.420       .  A
C3064      C3067   1.455       .  S
C3065      N3072   1.158       .  T
C3066      N3071   1.157       .  T
C3067      N3069   1.157       .  T
C3068      N3070   1.157       .  T
