geometry optimzed in LAMMPS
_audit_creation_date              2020-11-30 
_audit_creation_method            'lammps2cif' 
_symmetry_space_group_name_H-M    'P1' 
_symmetry_Int_Tables_number       1 
_symmetry_cell_setting            triclinic 
loop_ 
_symmetry_equiv_pos_as_xyz 
  x,y,z 
_cell_length_a                    55.62471021 
_cell_length_b                    55.57635513847718 
_cell_length_c                    58.36457394790901 
_cell_angle_alpha                 90.01116630866302 
_cell_angle_beta                  89.69418228888452 
_cell_angle_gamma                 121.29505441341439 
loop_ 
_atom_site_label 
_atom_site_type_symbol 
_atom_site_fract_x 
_atom_site_fract_y 
_atom_site_fract_z 
_atom_site_charge 
Fe1        Fe  0.33693285  0.52833949  0.58706149     1.65800
Fe2        Fe  0.37341457  0.51055707  0.62271738     1.73200
Fe3        Fe  0.30136734  0.46734405  0.61831175     1.54400
O4          O  0.27905294  0.48836359  0.62075430    -0.81900
O5          O  0.36520326  0.47053541  0.61718169    -0.80200
O6          O  0.30598036  0.53028850  0.60421762    -0.84400
O7          O  0.30768230  0.49700113  0.56620025    -0.79300
O8          O  0.31036267  0.47514772  0.65302796    -0.81000
O9          O  0.39478375  0.52209992  0.59179449    -0.83800
C10         C  0.29078196  0.47057092  0.56675821     0.97000
C11         C  0.28402960  0.51271027  0.61506891     1.04400
O12         O  0.33718466  0.50188839  0.60930708    -1.12800
O13         O  0.38600951  0.55167445  0.63066183    -0.75200
O14         O  0.36547091  0.56399270  0.60468818    -0.78700
O15         O  0.28799294  0.45586881  0.58444462    -0.79400
C16         C  0.38179373  0.56981884  0.62156608     0.95900
O17         O  0.36815234  0.52929072  0.56759608    -0.77300
O18         O  0.35724028  0.50055799  0.65521806    -0.82500
C19         C  0.34359679  0.44592688  0.61723295     0.98500
C20         C  0.33308339  0.48788546  0.66441193     1.04400
O21         O  0.31866050  0.44146223  0.61757042    -0.78200
C22         C  0.38969602  0.52799518  0.57212963     1.02700
Fe23       Fe  0.19569070  0.66443252  0.59608243     1.65800
Fe24       Fe  0.13454314  0.62652180  0.62559272     1.73200
Fe25       Fe  0.16680103  0.69834971  0.62131284     1.54400
O26         O  0.21037974  0.72124146  0.62574908    -0.81900
O27         O  0.10418402  0.63470404  0.61517033    -0.80200
O28         O  0.22563135  0.69199166  0.61835475    -0.84400
O29         O  0.20136020  0.69751864  0.57600656    -0.79300
O30         O  0.16253048  0.68915773  0.65589007    -0.81000
O31         O  0.13024922  0.60673353  0.59431929    -0.83800
C32         C  0.18964505  0.71161515  0.57285318     0.97000
C33         C  0.22959293  0.71529297  0.62554021     1.04400
O34         O  0.16544331  0.66297980  0.61431140    -1.12800
O35         O  0.16063582  0.61290141  0.63793146    -0.75200
O36         O  0.19590904  0.63206349  0.61295255    -0.78700
O37         O  0.17166857  0.71061879  0.58700731    -0.79400
C38         C  0.18266560  0.61516032  0.62920918     0.95900
O39         O  0.16737308  0.63669957  0.57273312    -0.77300
O40         O  0.13538618  0.64273440  0.65769638    -0.82500
C41         C  0.10219142  0.65640948  0.61597117     0.98500
C42         C  0.14789351  0.66668958  0.66735193     1.04400
O43         O  0.12343343  0.68106257  0.61856347    -0.78200
C44         C  0.14367513  0.61415559  0.57538546     1.02700
Fe45       Fe  0.46595444  0.81456910  0.59703351     1.65800
Fe46       Fe  0.49204730  0.87333771  0.62963822     1.73200
Fe47       Fe  0.52961924  0.84073265  0.62237249     1.54400
O48         O  0.50656482  0.79671627  0.62583198    -0.81900
O49         O  0.53082479  0.90394330  0.61798083    -0.80200
O50         O  0.46221629  0.78200427  0.61627772    -0.84400
O51         O  0.49309056  0.81139857  0.57464951    -0.79300
O52         O  0.52532909  0.84341509  0.65749305    -0.81000
O53         O  0.47460661  0.87916062  0.60051013    -0.83800
C54         C  0.51934639  0.82167125  0.57222197     0.97000
C55         C  0.48070806  0.77750731  0.62411208     1.04400
O56         O  0.49603656  0.84300448  0.61627858    -1.12800
O57         O  0.45273364  0.84577791  0.64318942    -0.75200
O58         O  0.43398113  0.81260826  0.61646236    -0.78700
O59         O  0.53681579  0.83705641  0.58760072    -0.79400
C60         C  0.43189923  0.82427872  0.63437391     0.95900
O61         O  0.46688364  0.84481476  0.57626988    -0.77300
O62         O  0.50898378  0.87227325  0.66050879    -0.82500
C63         C  0.55457723  0.90594494  0.61836759     0.98500
C64         C  0.51904398  0.85861045  0.66934909     1.04400
O65         O  0.55735496  0.88463812  0.62037225    -0.78200
C66         C  0.46760993  0.86746383  0.58104335     1.02700
Fe67       Fe  0.19602086  0.52944872  0.41334566     1.65800
Fe68       Fe  0.13914933  0.51051671  0.38016904     1.73200
Fe69       Fe  0.16568009  0.46697714  0.38483322     1.54400
O70         O  0.20930225  0.48680504  0.38234127    -0.81900
O71         O  0.10596560  0.47150081  0.38849043    -0.80200
O72         O  0.22741540  0.53135837  0.39368599    -0.84400
O73         O  0.19585810  0.49899100  0.43359576    -0.79300
O74         O  0.16476333  0.47410035  0.34994484    -0.81000
O75         O  0.13319783  0.52512646  0.41116744    -0.83800
C76         C  0.18358314  0.47238580  0.43467316     0.97000
C77         C  0.22992916  0.51174870  0.38529112     1.04400
O78         O  0.16682533  0.50218906  0.39278283    -1.12800
O79         O  0.16880351  0.55090556  0.36989768    -0.75200
O80         O  0.20172308  0.56485228  0.39640013    -0.78700
O81         O  0.16727439  0.45659373  0.41892252    -0.79400
C82         C  0.19075809  0.57004758  0.37958651     0.95900
O83         O  0.16679429  0.52953832  0.43478008    -0.77300
O84         O  0.14193143  0.49725235  0.34779155    -0.82500
C85         C  0.10198329  0.44692245  0.38815819     0.98500
C86         C  0.15360309  0.48521787  0.33845584     1.04400
O87         O  0.12185110  0.44204831  0.38621840    -0.78200
C88         C  0.14488761  0.53040333  0.43067706     1.02700
Fe89       Fe  0.34441086  0.81639435  0.41805567     1.65800
Fe90       Fe  0.38236543  0.87420922  0.38390899     1.73200
Fe91       Fe  0.30990722  0.84092218  0.38632664     1.54400
O92         O  0.28947240  0.79727071  0.38112289    -0.81900
O93         O  0.37256988  0.90487832  0.38822899    -0.80200
O94         O  0.31454676  0.78260876  0.39975513    -0.84400
O95         O  0.31391780  0.81569495  0.43843358    -0.79300
O96         O  0.32164489  0.84617380  0.35199044    -0.81000
O97         O  0.40103906  0.88446111  0.41586574    -0.83800
C98         C  0.29588688  0.82300730  0.43729682     0.97000
C99         C  0.29400436  0.77795275  0.38724888     1.04400
O100        O  0.34552582  0.84394046  0.39613289    -1.12800
O101        O  0.39754322  0.84790459  0.37735417    -0.75200
O102        O  0.37457171  0.81212799  0.40146499    -0.78700
O103        O  0.29305890  0.83453899  0.41950173    -0.79400
C104        C  0.39311528  0.82514919  0.38619400     0.95900
O105        O  0.37424633  0.84736181  0.43849261    -0.77300
O106        O  0.36843588  0.86760088  0.35069169    -0.82500
C107        C  0.35053404  0.90616947  0.38989596     0.98500
C108        C  0.34473721  0.85665491  0.34096884     1.04400
O109        O  0.32587285  0.88428319  0.39004457    -0.78200
C110        C  0.39528572  0.87187437  0.43505885     1.02700
Fe111      Fe  0.47168586  0.66472483  0.41315866     1.65800
Fe112      Fe  0.49436498  0.63147261  0.37908979     1.73200
Fe113      Fe  0.53607588  0.70294162  0.38770602     1.54400
O114        O  0.51461853  0.72450601  0.38482311    -0.81900
O115        O  0.53271473  0.63891494  0.38909743    -0.80200
O116        O  0.46941482  0.69399975  0.39365685    -0.70000
O117        O  0.49919848  0.69591417  0.43466621    -0.79300
O118        O  0.53246503  0.69695288  0.35224603    -0.81000
O119        O  0.47758394  0.60792660  0.40873170    -0.83800
C120        C  0.52531994  0.71235712  0.43742057     0.97000
C121        C  0.48904873  0.71791018  0.38674460     1.04400
O122        O  0.50095333  0.66646064  0.39332762    -1.12800
O123        O  0.45490413  0.61961422  0.36709920    -0.75200
O124        O  0.43833777  0.63343344  0.39536138    -0.78700
O125        O  0.54314835  0.71402827  0.42264826    -0.79400
C126        C  0.43471963  0.61939707  0.37733262     0.95900
O127        O  0.47236645  0.63533831  0.43384841    -0.77300
O128        O  0.51010389  0.65038404  0.34781950    -0.82500
C129        C  0.55718230  0.66050826  0.39031625     0.98500
C130        C  0.52251060  0.67515035  0.33964669     1.04400
O131        O  0.56182918  0.68555419  0.38972863    -0.78200
C132        C  0.47208241  0.61301635  0.42865493     1.02700
Fe133      Fe  0.63322247  0.50242673  0.38451105     1.65800
Fe134      Fe  0.67181934  0.48058383  0.41243657     1.73200
Fe135      Fe  0.70501007  0.54474061  0.38557310     1.54400
O136        O  0.69095700  0.54341527  0.35263343    -0.81900
O137        O  0.69976142  0.50921302  0.43528707    -0.80200
O138        O  0.64585240  0.50859807  0.35066035    -0.84400
O139        O  0.64444030  0.54383111  0.38799156    -0.79300
O140        O  0.72425052  0.52363269  0.37353443    -0.81000
O141        O  0.63942421  0.47485606  0.43359002    -0.83800
C142        C  0.66567457  0.56675409  0.39446653     0.97000
C143        C  0.66894831  0.52694519  0.34135144     1.04400
O144        O  0.67013565  0.50930708  0.39423715    -1.12800
O145        O  0.64468279  0.44761550  0.39216672    -0.75200
O146        O  0.61459556  0.45935369  0.37962304    -0.78700
O147        O  0.68983345  0.56992808  0.39674919    -0.79400
C148        C  0.62183068  0.44143968  0.38273661     0.95900
O149        O  0.61875392  0.49609225  0.41793044    -0.77300
O150        O  0.70393025  0.48320693  0.39310257    -0.82500
C151        C  0.71960806  0.53464777  0.43422562     0.98500
C152        C  0.72170847  0.50017441  0.37859432     1.04400
O153        O  0.72402959  0.55040758  0.41706319    -0.78200
C154        C  0.62219372  0.48338345  0.43450528     1.02700
Fe155      Fe  0.50661910  0.37977938  0.62629094     1.65800
Fe156      Fe  0.53115347  0.34195886  0.60012402     1.73200
Fe157      Fe  0.46874902  0.30733873  0.62964721     1.54400
O158        O  0.47171781  0.32386937  0.66242510    -0.81900
O159        O  0.50275795  0.31069169  0.57918075    -0.80200
O160        O  0.50159664  0.37041678  0.66063310    -0.84400
O161        O  0.46455738  0.36552773  0.62229959    -0.79300
O162        O  0.49277379  0.29114404  0.64146978    -0.81000
O163        O  0.53328966  0.37120684  0.57701470    -0.83800
C164        C  0.44187611  0.34247266  0.61860536     0.97000
C165        C  0.48650369  0.34788499  0.67190614     1.04400
O166        O  0.50205805  0.34291425  0.61860842    -1.12800
O167        O  0.56392087  0.37258484  0.61852934    -0.75200
O168        O  0.54981220  0.40089370  0.63129805    -0.78700
O169        O  0.44025755  0.31881332  0.61914809    -0.79400
C170        C  0.56879047  0.39514246  0.62790151     0.95900
O171        O  0.51224394  0.39231178  0.59253454    -0.77300
O172        O  0.53249609  0.31286451  0.62102169    -0.82500
C173        C  0.47797960  0.28972238  0.58113542     0.98500
C174        C  0.51658018  0.29483216  0.63586328     1.04400
O175        O  0.46234398  0.28591802  0.59848052    -0.78200
C176        C  0.52460897  0.38830963  0.57598020     1.02700
Fe177      Fe  0.51191592  0.14762004  0.38199966     1.65800
Fe178      Fe  0.53589461  0.21024908  0.40901274     1.73200
Fe179      Fe  0.46939256  0.17509207  0.38672494     1.54400
O180        O  0.46859712  0.16237695  0.35303941    -0.81900
O181        O  0.50941251  0.21107737  0.43309161    -0.80200
O182        O  0.50210443  0.15182632  0.34861617    -0.84400
O183        O  0.47135099  0.11555093  0.38837133    -0.79300
O184        O  0.48940036  0.21645138  0.37431022    -0.81000
O185        O  0.54208023  0.18483489  0.43060219    -0.83800
C186        C  0.44864741  0.11255784  0.39603939     0.97000
C187        C  0.48358424  0.15636552  0.34051610     1.04400
O188        O  0.50569429  0.17770049  0.39261304    -1.12800
O189        O  0.56748268  0.21548563  0.38771165    -0.75200
O190        O  0.55410175  0.17332875  0.37375017    -0.78700
O191        O  0.44517968  0.13333928  0.39837925    -0.79400
C192        C  0.57250910  0.19894451  0.37687879     0.95900
O193        O  0.52171182  0.14199578  0.41503443    -0.77300
O194        O  0.53267142  0.23836262  0.38891941    -0.82500
C195        C  0.48355103  0.20263688  0.43491719     0.98500
C196        C  0.51395129  0.23811456  0.37652034     1.04400
O197        O  0.46583622  0.18820579  0.41945983    -0.78200
C198        C  0.53404927  0.15890105  0.43158361     1.02700
Fe199      Fe  0.86206159  0.50319780  0.62663088     1.65800
Fe200      Fe  0.80112699  0.48262551  0.59937949     1.73200
Fe201      Fe  0.83543500  0.54659306  0.62588557     1.54400
O202        O  0.84941608  0.54546156  0.65847471    -0.81900
O203        O  0.80457924  0.51154441  0.57596508    -0.80200
O204        O  0.85617956  0.50913715  0.66072684    -0.84400
O205        O  0.89431400  0.54460915  0.62363857    -0.79300
O206        O  0.79464914  0.52603312  0.63898016    -0.81000
O207        O  0.82663006  0.47502037  0.57843606    -0.83800
C208        C  0.89725647  0.56752570  0.61650729     0.97000
C209        C  0.85386950  0.52866211  0.66988726     1.04400
O210        O  0.83280199  0.51090769  0.61729631    -1.12800
O211        O  0.79280503  0.45005324  0.62078585    -0.75200
O212        O  0.83520997  0.45972288  0.63073271    -0.78700
O213        O  0.87656960  0.57094092  0.61366770    -0.79400
C214        C  0.80896809  0.44252812  0.62864802     0.95900
O215        O  0.86978935  0.49768779  0.59288662    -0.77300
O216        O  0.77228456  0.48674571  0.61816702    -0.82500
C217        C  0.80947502  0.53641507  0.57736031     0.98500
C218        C  0.77248637  0.50328939  0.63320316     1.04400
O219        O  0.82078422  0.55198113  0.59472739    -0.78200
C220        C  0.85295428  0.48435962  0.57675543     1.02700
Fe221      Fe  0.80606427  0.34554599  0.41074467     1.65800
Fe222      Fe  0.86802945  0.38607024  0.38179420     1.73200
Fe223      Fe  0.83476144  0.31382755  0.38044591     1.54400
O224        O  0.82046017  0.29230005  0.41129499    -0.81900
O225        O  0.86360213  0.37505146  0.34742571    -0.80200
O226        O  0.80433421  0.31481644  0.43171311    -0.84400
O227        O  0.77510859  0.31604810  0.38998724    -0.79300
O228        O  0.87542746  0.32781055  0.39116727    -0.81000
O229        O  0.84367661  0.40361507  0.37569766    -0.83800
C230        C  0.77363189  0.29988294  0.37400378     0.97000
C231        C  0.80916130  0.29506617  0.42919886     1.04400
O232        O  0.83636264  0.34851291  0.39112139    -1.12800
O233        O  0.87533021  0.40116608  0.41531884    -0.75200
O234        O  0.83392625  0.37550526  0.43313250    -0.78700
O235        O  0.79405059  0.29685685  0.36852497    -0.79400
C236        C  0.85956209  0.39527125  0.43290920     0.95900
O237        O  0.80271113  0.37536020  0.39294894    -0.77300
O238        O  0.89726901  0.37436019  0.38667856    -0.82500
C239        C  0.85642538  0.35214790  0.33714274     0.98500
C240        C  0.89751879  0.35215778  0.39127775     1.04400
O241        O  0.84797818  0.32911608  0.34763615    -0.78200
C242        C  0.81898852  0.39709470  0.38133160     1.02700
Fe243      Fe  0.62851351  0.14321358  0.62565032     1.65800
Fe244      Fe  0.66569511  0.20385299  0.59488810     1.73200
Fe245      Fe  0.70057326  0.17539333  0.62012831     1.54400
O246        O  0.68922369  0.16377696  0.65388980    -0.81900
O247        O  0.69391400  0.20524046  0.57145025    -0.80200
O248        O  0.64399254  0.15043901  0.65870664    -0.84400
O249        O  0.63904529  0.11304610  0.62070785    -0.79300
O250        O  0.72056610  0.21736432  0.63065616    -0.81000
O251        O  0.63401623  0.17462649  0.57447250    -0.83800
C252        C  0.65993731  0.11169596  0.61375136     0.97000
C253        C  0.66789530  0.15669986  0.66651519     1.04400
O254        O  0.66496497  0.17415086  0.61354140    -1.12800
O255        O  0.63795409  0.20820660  0.61487642    -0.75200
O256        O  0.61048684  0.16748586  0.63236721    -0.78700
O257        O  0.68419058  0.13348537  0.61055763    -0.79400
C258        C  0.61651706  0.19207948  0.62678326     0.95900
O259        O  0.61087661  0.13355549  0.59326019    -0.77300
O260        O  0.69719455  0.23533143  0.61392282    -0.82500
C261        C  0.71348287  0.20003767  0.57093786     0.98500
C262        C  0.71650243  0.23756052  0.62683748     1.04400
O263        O  0.71789407  0.18800951  0.58745138    -0.78200
C264        C  0.61544247  0.14852787  0.57543487     1.02700
Fe265      Fe  0.66741469  0.48550332  0.09204310     1.65800
Fe266      Fe  0.63452245  0.50451746  0.13037470     1.73200
Fe267      Fe  0.70606601  0.54629332  0.12243489     1.54400
O268        O  0.72707335  0.52396819  0.12331313    -0.81900
O269        O  0.64252036  0.54396354  0.12285700    -0.80200
O270        O  0.69779254  0.48153122  0.10834033    -0.84400
O271        O  0.69735858  0.51610776  0.07055972    -0.79300
O272        O  0.69935158  0.53979551  0.15757352    -0.81000
O273        O  0.61040203  0.49036869  0.10131890    -0.83800
C274        C  0.71420562  0.54255919  0.07060865     0.97000
C275        C  0.72076514  0.49906997  0.11798464     1.04400
O276        O  0.66948415  0.51224367  0.11501179    -1.12800
O277        O  0.62320427  0.46419232  0.13974028    -0.75200
O278        O  0.63701275  0.45006732  0.10962836    -0.78700
O279        O  0.71755973  0.55733465  0.08826019    -0.79400
C280        C  0.62328400  0.44491044  0.12825942     0.95900
O281        O  0.63702908  0.48767951  0.07393525    -0.77300
O282        O  0.65276468  0.51735997  0.16162764    -0.82500
C283        C  0.66454105  0.56825256  0.12180394     0.98500
C284        C  0.67721946  0.52933657  0.16986317     1.04400
O285        O  0.68934293  0.57243940  0.12228230    -0.78200
C286        C  0.61496781  0.48698323  0.08068264     1.02700
Fe287      Fe  0.53595205  0.35723297  0.92046668     1.65800
Fe288      Fe  0.51690406  0.39526013  0.88795737     1.73200
Fe289      Fe  0.47583265  0.32294898  0.88924682     1.54400
O290        O  0.49779308  0.30193947  0.88546857    -0.81900
O291        O  0.47687749  0.38556827  0.89567151    -0.80200
O292        O  0.54036113  0.32975076  0.90049873    -0.84400
O293        O  0.50520704  0.32453495  0.93966698    -0.79300
O294        O  0.48421705  0.33444845  0.85501427    -0.81000
O295        O  0.52959327  0.41451982  0.91968731    -0.83800
C296        C  0.47873833  0.30817944  0.93933921     0.97000
C297        C  0.52268876  0.30783953  0.88983787     1.04400
O298        O  0.50945301  0.35845775  0.89919250    -1.12800
O299        O  0.55784886  0.40928749  0.87864657    -0.75200
O300        O  0.57121468  0.38943611  0.90461601    -0.78700
O301        O  0.46394590  0.30747576  0.92252474    -0.79400
C302        C  0.57658491  0.40648979  0.88825143     0.95900
O303        O  0.53391909  0.38467648  0.94239545    -0.77300
O304        O  0.50580154  0.38133401  0.85473144    -0.82500
C305        C  0.45282082  0.36333097  0.89447206     0.98500
C306        C  0.49478309  0.35785796  0.84448787     1.04400
O307        O  0.44927766  0.33900634  0.89152874    -0.78200
C308        C  0.53434164  0.40739085  0.93901480     1.02700
Fe309      Fe  0.66572986  0.20930898  0.91105192     1.65800
Fe310      Fe  0.62631159  0.15064762  0.87890548     1.73200
Fe311      Fe  0.69779907  0.17963756  0.88345678     1.54400
O312        O  0.72292281  0.22380786  0.88028933    -0.81900
O313        O  0.63210253  0.11826022  0.88838469    -0.80200
O314        O  0.69619735  0.24084755  0.89125914    -0.84400
O315        O  0.69564215  0.20950221  0.93211839    -0.79300
O316        O  0.68976078  0.17774221  0.84899270    -0.81000
O317        O  0.60530987  0.14522682  0.90985464    -0.83800
C318        C  0.70916831  0.19688109  0.93347661     0.97000
C319        C  0.71865382  0.24410191  0.88275812     1.04400
O320        O  0.66319549  0.17975130  0.89109416    -1.12800
O321        O  0.61546931  0.17924149  0.86790548    -0.75200
O322        O  0.63651984  0.21390511  0.89322203    -0.78700
O323        O  0.70909602  0.18144618  0.91743637    -0.79400
C324        C  0.61956438  0.20185842  0.87685533     0.95900
O325        O  0.63506139  0.18058873  0.93255467    -0.77300
O326        O  0.64281261  0.15273503  0.84654669    -0.82500
C327        C  0.65309205  0.11507467  0.88812258     0.98500
C328        C  0.66722340  0.16481647  0.83751184     1.04400
O329        O  0.67817215  0.13569157  0.88531822    -0.78200
C330        C  0.61183137  0.15800777  0.92896724     1.02700
Fe331      Fe  0.81924404  0.49294341  0.91676201     1.65800
Fe332      Fe  0.87544368  0.51372738  0.88198190     1.73200
Fe333      Fe  0.84697481  0.55567546  0.88856295     1.54400
O334        O  0.80319827  0.53327861  0.88509143    -0.81900
O335        O  0.90787834  0.55378380  0.88930458    -0.80200
O336        O  0.78702767  0.48922964  0.89746852    -0.84400
O337        O  0.81701948  0.52177211  0.93717322    -0.79300
O338        O  0.85025974  0.55104549  0.85356853    -0.81000
O339        O  0.88327840  0.50041759  0.91269280    -0.83800
C340        C  0.82707044  0.54801017  0.93834162     0.97000
C341        C  0.78339927  0.50789065  0.88851960     1.04400
O342        O  0.84736199  0.52099004  0.89570845    -1.12800
O343        O  0.84634182  0.47259625  0.87228063    -0.75200
O344        O  0.81505818  0.45811059  0.90031761    -0.78700
O345        O  0.84297756  0.56464203  0.92267339    -0.79400
C346        C  0.82505492  0.45310345  0.88269511     0.95900
O347        O  0.85000980  0.49539981  0.93737197    -0.77300
O348        O  0.87104838  0.52600110  0.84998578    -0.82500
C349        C  0.91113122  0.57806921  0.89117100     0.98500
C350        C  0.86046105  0.53938167  0.84149784     1.04400
O351        O  0.89063403  0.58216710  0.89121397    -0.78200
C352        C  0.87258916  0.49596922  0.93266262     1.02700
Fe353      Fe  0.52444382  0.20457068  0.09330251     1.65800
Fe354      Fe  0.50407737  0.14644539  0.12538779     1.73200
Fe355      Fe  0.46182601  0.17447033  0.12173076     1.54400
O356        O  0.48368292  0.21847458  0.12621861    -0.81900
O357        O  0.46475889  0.11373277  0.11703597    -0.80200
O358        O  0.52821196  0.23519869  0.11505569    -0.84400
O359        O  0.49525498  0.20760797  0.07405841    -0.79300
O360        O  0.46773221  0.17106801  0.15646878    -0.81000
O361        O  0.51858076  0.14146371  0.09373809    -0.83800
C362        C  0.46877435  0.19512113  0.07228313     0.97000
C363        C  0.50943962  0.23828427  0.12455800     1.04400
O364        O  0.49650544  0.17489421  0.11343970    -1.12800
O365        O  0.54432999  0.17559443  0.13592511    -0.75200
O366        O  0.55927506  0.20743145  0.10839355    -0.78700
O367        O  0.45238954  0.17840526  0.08774119    -0.79400
C368        C  0.56402421  0.19655330  0.12547037     0.95900
O369        O  0.52237112  0.17541426  0.07058827    -0.77300
O370        O  0.49088703  0.14825350  0.15814460    -0.82500
C371        C  0.44028865  0.11007132  0.11690983     0.98500
C372        C  0.47858997  0.15949707  0.16774446     1.04400
O373        O  0.43582530  0.13033790  0.11874425    -0.78200
C374        C  0.52299131  0.15321594  0.07416457     1.02700
Fe375      Fe  0.80670984  0.34490063  0.09059770     1.65800
Fe376      Fe  0.86706134  0.38239842  0.12082173     1.73200
Fe377      Fe  0.83320260  0.31061936  0.11930475     1.54400
O378        O  0.78952021  0.28789195  0.12249371    -0.81900
O379        O  0.89638293  0.37314203  0.10912122    -0.80200
O380        O  0.77460339  0.31617695  0.11106526    -0.84400
O381        O  0.80421913  0.31325045  0.07019719    -0.79300
O382        O  0.83561023  0.32112927  0.15377861    -0.81000
O383        O  0.87116778  0.40321188  0.09047129    -0.83800
C384        C  0.81532392  0.29823956  0.06917315     0.97000
C385        C  0.77024760  0.29342389  0.11981242     1.04400
O386        O  0.83563426  0.34599717  0.11022723    -1.12800
O387        O  0.84098123  0.39582900  0.13290917    -0.75200
O388        O  0.80544737  0.37658735  0.10814538    -0.78700
O389        O  0.83005907  0.29735266  0.08542031    -0.79400
C390        C  0.81918777  0.39378725  0.12408557     0.95900
O391        O  0.83570830  0.37374505  0.06808070    -0.77300
O392        O  0.86701420  0.36719611  0.15324690    -0.82500
C393        C  0.89770588  0.35120034  0.11171456     0.98500
C394        C  0.85174318  0.34424619  0.16403352     1.04400
O395        O  0.87654388  0.32752562  0.11745347    -0.78200
C396        C  0.85800957  0.39717890  0.07168629     1.02700
Fe397      Fe  0.37384799  0.51788059  0.88001995     1.65800
Fe398      Fe  0.33422957  0.53852677  0.90861206     1.73200
Fe399      Fe  0.30213177  0.47441880  0.88190075     1.54400
O400        O  0.31624614  0.47629892  0.84840698    -0.81900
O401        O  0.30552943  0.50953555  0.93135546    -0.80200
O402        O  0.36131451  0.51111980  0.84626826    -0.84400
O403        O  0.36376554  0.47685626  0.88438279    -0.79300
O404        O  0.28231284  0.49510892  0.87005211    -0.81000
O405        O  0.36590137  0.54389448  0.92994108    -0.83800
C406        C  0.34292114  0.45394434  0.89158644     0.97000
C407        C  0.33834972  0.49291640  0.83695243     1.04400
O408        O  0.33664215  0.51026836  0.89021484    -1.12800
O409        O  0.36225568  0.57233024  0.88902798    -0.75200
O410        O  0.39185271  0.56076809  0.87468163    -0.78700
O411        O  0.31834489  0.45004699  0.89317347    -0.79400
C412        C  0.38507195  0.57877305  0.87910761     0.95900
O413        O  0.38846201  0.52516728  0.91314016    -0.77300
O414        O  0.30288756  0.53605688  0.88879533    -0.82500
C415        C  0.28644996  0.48375538  0.93090420     0.98500
C416        C  0.28523742  0.51891275  0.87448518     1.04400
O417        O  0.28286116  0.46796930  0.91391182    -0.78200
C418        C  0.38411152  0.53662270  0.93017461     1.02700
Fe419      Fe  0.14218423  0.51500622  0.12014459     1.65800
Fe420      Fe  0.20046238  0.53038128  0.09169047     1.73200
Fe421      Fe  0.16700378  0.47025960  0.12246553     1.54400
O422        O  0.16222189  0.47855744  0.15575813    -0.81900
O423        O  0.20521162  0.49997455  0.07660807    -0.80200
O424        O  0.13909526  0.50138876  0.15422722    -0.84400
O425        O  0.11067236  0.47709462  0.10918373    -0.79300
O426        O  0.21090217  0.49199946  0.12892562    -0.81000
O427        O  0.17256481  0.52425806  0.06672221    -0.83800
C428        C  0.10411881  0.45212096  0.11314823     0.97000
C429        C  0.15000794  0.48974510  0.16544973     1.04400
O430        O  0.16983738  0.50503859  0.11175714    -1.12800
O431        O  0.20228571  0.56665930  0.10314784    -0.75200
O432        O  0.17155869  0.55439655  0.13149084    -0.78700
O433        O  0.12253345  0.44592294  0.11873644    -0.79400
C434        C  0.19218310  0.57298396  0.12002368     0.95900
O435        O  0.14214385  0.53015002  0.08712108    -0.77300
O436        O  0.22866699  0.53588622  0.11592580    -0.82500
C437        C  0.19202151  0.47345042  0.07568137     0.98500
C438        C  0.23087221  0.51785909  0.12758163     1.04400
O439        O  0.17237101  0.45816338  0.08975707    -0.78200
C440        C  0.15300214  0.52939474  0.06798740     1.02700
Fe441      Fe  0.20207239  0.67139394  0.91251248     1.65800
Fe442      Fe  0.14284630  0.63617647  0.88046142     1.73200
Fe443      Fe  0.17788944  0.70823302  0.88445913     1.54400
O444        O  0.19298627  0.72685872  0.91618531    -0.81900
O445        O  0.15072355  0.65114798  0.84746416    -0.80200
O446        O  0.20040114  0.69738492  0.93629416    -0.84400
O447        O  0.23532315  0.70470546  0.89563258    -0.79300
O448        O  0.13723836  0.69416303  0.89619237    -0.81000
O449        O  0.16686807  0.61800724  0.87395748    -0.83800
C450        C  0.23902642  0.72212663  0.87990436     0.97000
C451        C  0.19980574  0.71968860  0.93448944     1.04400
O452        O  0.17426750  0.67190300  0.89248188    -1.12800
O453        O  0.13177802  0.61740377  0.91226299    -0.75200
O454        O  0.17202152  0.63813831  0.93170795    -0.78700
O455        O  0.21905218  0.72479783  0.87231817    -0.79400
C456        C  0.14596323  0.62006029  0.93000204     0.95900
O457        O  0.20759161  0.64525590  0.89152171    -0.77300
O458        O  0.11420564  0.64889962  0.88589665    -0.82500
C459        C  0.15627701  0.67454652  0.83916352     0.98500
C460        C  0.11457012  0.67041805  0.89384752     1.04400
O461        O  0.16375344  0.69625789  0.85123531    -0.78200
C462        C  0.19154840  0.62422152  0.87928899     1.02700
Fe463      Fe  0.50854088  0.87734804  0.88346086     1.65800
Fe464      Fe  0.48645425  0.81757359  0.91459134     1.73200
Fe465      Fe  0.54920331  0.84736856  0.88548268     1.54400
O466        O  0.54805250  0.85920744  0.85215303    -0.81900
O467        O  0.51526937  0.81722159  0.93623747    -0.80200
O468        O  0.51558593  0.87125229  0.84992110    -0.84400
O469        O  0.54985121  0.90831285  0.88789263    -0.79300
O470        O  0.52554756  0.80543731  0.87460088    -0.81000
O471        O  0.48458389  0.84611284  0.93577341    -0.83800
C472        C  0.57272818  0.91048671  0.89390259     0.97000
C473        C  0.53288036  0.86571116  0.84075964     1.04400
O474        O  0.51476589  0.84740106  0.89456839    -1.12800
O475        O  0.45242942  0.81199794  0.89645784    -0.75200
O476        O  0.46569770  0.85155410  0.87746924    -0.78700
O477        O  0.57583200  0.88937641  0.89549110    -0.79400
C478        C  0.44695029  0.82709601  0.88397742     0.95900
O479        O  0.50129486  0.88620278  0.91623796    -0.77300
O480        O  0.48564018  0.78666536  0.89500233    -0.82500
C481        C  0.54020610  0.82244490  0.93441938     0.98500
C482        C  0.50131508  0.78475667  0.88016287     1.04400
O483        O  0.55560136  0.83448091  0.91704713    -0.78200
C484        C  0.49142844  0.87172192  0.93443950     1.02700
Fe485      Fe  0.38498756  0.87693207  0.12359316     1.65800
Fe486      Fe  0.34693420  0.81703946  0.09245173     1.73200
Fe487      Fe  0.31276145  0.84074931  0.12537963     1.54400
O488        O  0.32808677  0.85362752  0.15811747    -0.81900
O489        O  0.31815997  0.81801005  0.07143958    -0.80200
O490        O  0.37402360  0.86940801  0.15781819    -0.84400
O491        O  0.37145864  0.90525798  0.12091989    -0.79300
O492        O  0.29799698  0.79975694  0.13644070    -0.81000
O493        O  0.37820945  0.84678576  0.07186261    -0.83800
C494        C  0.34880465  0.90460061  0.11626890     0.97000
C495        C  0.35111468  0.86168442  0.16832547     1.04400
O496        O  0.34824002  0.84499451  0.11374266    -1.12800
O497        O  0.37526847  0.81204106  0.11053575    -0.75200
O498        O  0.40391661  0.85310582  0.12734466    -0.78700
O499        O  0.32494045  0.88173683  0.11554648    -0.79400
C500        C  0.39714648  0.82826241  0.12178612     0.95900
O501        O  0.39980222  0.88766357  0.09027754    -0.77300
O502        O  0.31587500  0.78377246  0.11061911    -0.82500
C503        C  0.29601501  0.81836218  0.07550172     0.98500
C504        C  0.30037072  0.78003787  0.12785943     1.04400
O505        O  0.29098827  0.82573065  0.09466403    -0.78200
C506        C  0.39602630  0.87298095  0.07250101     1.02700
Fe507      Fe  0.49776655  0.63324743  0.12392946     1.65800
Fe508      Fe  0.47663859  0.67098441  0.09299411     1.73200
Fe509      Fe  0.53877926  0.70575129  0.12211169     1.54400
O510        O  0.53566663  0.69284959  0.15566872    -0.81900
O511        O  0.50625281  0.70055587  0.07136648    -0.80200
O512        O  0.50484136  0.64649794  0.15774285    -0.84400
O513        O  0.53912571  0.64502216  0.11949650    -0.79300
O514        O  0.51577109  0.72417277  0.13163250    -0.81000
O515        O  0.47479445  0.64083402  0.07190617    -0.83800
C516        C  0.56245599  0.66701837  0.11469903     0.97000
C517        C  0.52110806  0.67025766  0.16700301     1.04400
O518        O  0.50441219  0.67000657  0.11302935    -1.12800
O519        O  0.44233887  0.64150070  0.11116480    -0.75200
O520        O  0.45494015  0.61503228  0.12987581    -0.78700
O521        O  0.56554649  0.69131593  0.11368350    -0.79400
C522        C  0.43652546  0.62046057  0.12348784     0.95900
O523        O  0.49031090  0.61674372  0.09094414    -0.77300
O524        O  0.47568588  0.70135003  0.11205653    -0.82500
C525        C  0.53163827  0.72035164  0.07253691     0.98500
C526        C  0.49188888  0.72023305  0.12604414     1.04400
O527        O  0.54678505  0.72439494  0.08995030    -0.78200
C528        C  0.48106645  0.62197298  0.07289687     1.02700
C529        C  0.48219945  0.73870486  0.13515221     0.01100
C530        C  0.49956250  0.76831558  0.13350821     0.03900
C531        C  0.48775841  0.78527646  0.13617244    -0.12100
C532        C  0.45852864  0.77272966  0.13944987     0.23200
C533        C  0.44164248  0.74344173  0.14300014    -0.12700
C534        C  0.45365051  0.72659998  0.14162317     0.04700
C535        C  0.44505941  0.78949630  0.13555078     0.27100
C536        C  0.43577524  0.79905925  0.15402358    -0.13400
C537        C  0.42084020  0.81278882  0.14978043     0.05200
C538        C  0.41589695  0.81759799  0.12703872    -0.09300
C539        C  0.42643134  0.80920697  0.10863648     0.06000
C540        C  0.44059845  0.79489501  0.11286046    -0.13700
Br541      Br  0.40156462  0.72603805  0.14755023    -0.05800
Br542      Br  0.53871806  0.78577792  0.12499954    -0.00200
Br543      Br  0.40545845  0.82312850  0.17494876     0.00300
Br544      Br  0.45299848  0.78171421  0.08739386    -0.04100
Br545      Br  0.43072233  0.68673435  0.14817675     0.00400
Br546      Br  0.51104049  0.82566643  0.13337518    -0.03400
Br547      Br  0.44310522  0.79273867  0.18499572    -0.04300
Br548      Br  0.42139465  0.81729440  0.07739079    -0.00300
C549        C  0.54252694  0.74067321  0.05334197     0.01100
C550        C  0.52736234  0.75363406  0.04717920     0.03900
C551        C  0.53485770  0.77049975  0.02750925    -0.12100
C552        C  0.55767146  0.77475773  0.01382358     0.23200
C553        C  0.57399626  0.76332324  0.02061932    -0.12700
C554        C  0.56633736  0.74609502  0.04036500     0.04700
C555        C  0.56089037  0.78746635  0.99083075     0.27100
C556        C  0.54335245  0.76992723  0.97324959    -0.13400
C557        C  0.53733322  0.78167589  0.95451238     0.05200
C558        C  0.55019853  0.81117478  0.95248754    -0.09300
C559        C  0.57044370  0.82886928  0.96865130     0.06000
C560        C  0.57548943  0.81696703  0.98805419    -0.13700
Br561      Br  0.60594393  0.77042332  0.00227967    -0.05800
Br562      Br  0.49569450  0.74798941  0.06544388    -0.00200
Br563      Br  0.50966452  0.75694511  0.93259008     0.00300
Br564      Br  0.60061191  0.84069919  0.01173603    -0.04100
Br565      Br  0.58686279  0.72809503  0.04842269     0.00400
Br566      Br  0.51259296  0.78642232  0.01842550    -0.03400
Br567      Br  0.52550445  0.72951087  0.97603789    -0.04300
Br568      Br  0.58928745  0.86913240  0.96519424    -0.00300
C569        C  0.41326837  0.88593677  0.05156293     0.01100
C570        C  0.40108712  0.87495889  0.02994496     0.03900
C571        C  0.41833589  0.87945252  0.01087160    -0.12100
C572        C  0.44768149  0.89751824  0.01262542     0.23200
C573        C  0.45942527  0.91249501  0.03301042    -0.12700
C574        C  0.44252539  0.90589079  0.05282092     0.04700
C575        C  0.46591460  0.89776679  0.99394990     0.27100
C576        C  0.47852938  0.88154210  0.99630685    -0.13400
C577        C  0.48982509  0.87573552  0.97703477     0.05200
C578        C  0.48684754  0.88455306  0.95501823    -0.09300
C579        C  0.47669926  0.90320537  0.95311365     0.06000
C580        C  0.46705670  0.91039266  0.97278270    -0.13700
Br581      Br  0.49899183  0.94075371  0.03381776    -0.05800
Br582      Br  0.36069928  0.85359201  0.02612983    -0.00200
Br583      Br  0.50924379  0.85552347  0.98117992     0.00300
Br584      Br  0.45336587  0.93591139  0.97077378    -0.04100
Br585      Br  0.46053016  0.92218162  0.08162397     0.00400
Br586      Br  0.40175984  0.85872734  0.98295206    -0.03400
Br587      Br  0.47839672  0.86528689  0.02562872    -0.04300
Br588      Br  0.47288278  0.91693035  0.92376274    -0.00300
C589        C  0.21037607  0.73903961  0.95405833     0.01100
C590        C  0.23939307  0.75307479  0.95868848     0.03900
C591        C  0.24987059  0.76780479  0.97924571    -0.12100
C592        C  0.23143623  0.76910946  0.99513870     0.23200
C593        C  0.20250602  0.75606815  0.99012606    -0.12700
C594        C  0.19195358  0.74101387  0.96950385     0.04700
C595        C  0.24264444  0.78224800  0.01773197     0.27100
C596        C  0.24083958  0.76509050  0.03620922    -0.13400
C597        C  0.25641653  0.77745838  0.05615526     0.05200
C598        C  0.27439939  0.80693226  0.05754116    -0.09300
C599        C  0.27512742  0.82417071  0.03957772     0.06000
C600        C  0.25901465  0.81183215  0.01973892    -0.13700
Br601      Br  0.17733278  0.75762477  0.01206224    -0.05800
Br602      Br  0.26487835  0.75155223  0.93697709    -0.00200
Br603      Br  0.25491673  0.75374825  0.08087293     0.00300
Br604      Br  0.26128404  0.83513827  0.99436316    -0.04100
Br605      Br  0.15232926  0.72208116  0.96282129     0.00400
Br606      Br  0.28932247  0.78458979  0.98630553    -0.03400
Br607      Br  0.21952003  0.72454501  0.03320350    -0.04300
Br608      Br  0.29971972  0.86441269  0.04158067    -0.00300
C609        C  0.26835711  0.73998555  0.87100628     0.01100
C610        C  0.28467758  0.72751646  0.86707579     0.03900
C611        C  0.31414708  0.74437892  0.86509950    -0.12100
C612        C  0.32764728  0.77385721  0.86679594     0.23200
C613        C  0.31132957  0.78651864  0.86818241    -0.12700
C614        C  0.28171528  0.76967211  0.87014613     0.04700
C615        C  0.35865446  0.79076808  0.87047742     0.27100
C616        C  0.36890586  0.79616157  0.89308032    -0.13400
C617        C  0.39787557  0.80896706  0.89717871     0.05200
C618        C  0.41696589  0.81617435  0.87872483    -0.09300
C619        C  0.40693283  0.81192022  0.85601692     0.06000
C620        C  0.37778591  0.79938233  0.85192381    -0.13700
Br621      Br  0.32998304  0.82700842  0.86900938    -0.05800
Br622      Br  0.26690049  0.68710413  0.86478358    -0.00200
Br623      Br  0.41144013  0.81708585  0.92834503     0.00300
Br624      Br  0.36376488  0.79340489  0.82103757    -0.04100
Br625      Br  0.26010847  0.78760292  0.87354025     0.00400
Br626      Br  0.33636035  0.72701444  0.86170055    -0.03400
Br627      Br  0.34307069  0.78521624  0.91863213    -0.04300
Br628      Br  0.43274971  0.82163481  0.83064623    -0.00300
C629        C  0.13209606  0.60132222  0.94971392     0.01100
C630        C  0.12174233  0.57226065  0.94779653     0.03900
C631        C  0.11652022  0.55603567  0.96773817    -0.12100
C632        C  0.12118029  0.56884854  0.98939767     0.23200
C633        C  0.12732651  0.59673907  0.99120208    -0.12700
C634        C  0.13331944  0.61316588  0.97134879     0.04700
C635        C  0.12824598  0.55671217  0.00885419     0.27100
C636        C  0.10741854  0.53637784  0.02349436    -0.13400
C637        C  0.11529855  0.52586723  0.04210822     0.05200
C638        C  0.14406932  0.53655489  0.04652761    -0.09300
C639        C  0.16466015  0.55520550  0.03057820     0.06000
C640        C  0.15675245  0.56566206  0.01215641    -0.13700
Br641      Br  0.13164372  0.61344105  0.02104704    -0.05800
Br642      Br  0.11836395  0.55549916  0.91812845    -0.00200
Br643      Br  0.08672291  0.49461916  0.05980947     0.00300
Br644      Br  0.18534877  0.59318817  0.99163885    -0.04100
Br645      Br  0.14563661  0.65251814  0.97392281     0.00400
Br646      Br  0.10678740  0.51736031  0.96553336    -0.03400
Br647      Br  0.06837263  0.52344448  0.01818255    -0.04300
Br648      Br  0.20397825  0.56687069  0.03316869    -0.00300
C649        C  0.28416734  0.75092766  0.13719917     0.01100
C650        C  0.29677168  0.73437631  0.13690615     0.03900
C651        C  0.27995607  0.70491192  0.13754358    -0.12100
C652        C  0.25061587  0.69181919  0.13964674     0.23200
C653        C  0.23832327  0.70819804  0.14318938    -0.12700
C654        C  0.25510106  0.73782537  0.14218588     0.04700
C655        C  0.23284300  0.66116829  0.13548792     0.27100
C656        C  0.22431640  0.65160652  0.11297046    -0.13400
C657        C  0.21021337  0.62271399  0.10813469     0.05200
C658        C  0.20461087  0.60307970  0.12583371    -0.09300
C659        C  0.21185556  0.61263606  0.14867464     0.06000
C660        C  0.22642559  0.64172185  0.15336558    -0.13700
Br661      Br  0.19817078  0.68976349  0.14749865    -0.05800
Br662      Br  0.33717775  0.75179785  0.13548305    -0.00200
Br663      Br  0.19769153  0.61034547  0.07720577     0.00300
Br664      Br  0.23907530  0.65528999  0.18399254    -0.04100
Br665      Br  0.23756846  0.75976055  0.14610353     0.00400
Br666      Br  0.29680362  0.68228828  0.13343702    -0.03400
Br667      Br  0.23308556  0.67834190  0.08846986    -0.04300
Br668      Br  0.20303596  0.58638782  0.17357847    -0.00300
C669        C  0.40657131  0.60083671  0.12913760     0.01100
C670        C  0.38709497  0.58908124  0.11102740     0.03900
C671        C  0.35813182  0.57332197  0.11570397    -0.12100
C672        C  0.34839485  0.56833618  0.13853214     0.23200
C673        C  0.36779078  0.57889161  0.15671688    -0.12700
C674        C  0.39692763  0.59518850  0.15203006     0.04700
C675        C  0.31767622  0.55403925  0.14284741     0.27100
C676        C  0.30522156  0.57038027  0.14482447    -0.13400
C677        C  0.27589241  0.55747275  0.14353285     0.05200
C678        C  0.25886711  0.52832499  0.13843468    -0.09300
C679        C  0.27112202  0.51147421  0.13956838     0.06000
C680        C  0.30058810  0.52449346  0.14161288    -0.13700
Br681      Br  0.35419446  0.57208203  0.18789026    -0.05800
Br682      Br  0.40001939  0.59407165  0.07960406    -0.00200
Br683      Br  0.25959964  0.58049702  0.14839075     0.00300
Br684      Br  0.31811026  0.50233166  0.14049940    -0.04100
Br685      Br  0.42341963  0.61108942  0.17683313     0.00400
Br686      Br  0.33159349  0.55991038  0.09073058    -0.03400
Br687      Br  0.32863526  0.61095223  0.14654793    -0.04300
Br688      Br  0.24857827  0.47099337  0.13712549    -0.00300
C689        C  0.26686998  0.47268574  0.95075330     0.01100
C690        C  0.26547816  0.45169109  0.96524483     0.03900
C691        C  0.24921968  0.44409905  0.98559000    -0.12100
C692        C  0.23505482  0.45811616  0.99186123     0.23200
C693        C  0.23568013  0.47837512  0.97689781    -0.12700
C694        C  0.25116586  0.48530107  0.95632126     0.04700
C695        C  0.22298347  0.45495591  0.01533704     0.27100
C696        C  0.19359670  0.44116191  0.01890958    -0.13400
C697        C  0.18271765  0.44464625  0.03978284     0.05200
C698        C  0.20125557  0.46151477  0.05727411    -0.09300
C699        C  0.23047726  0.47267915  0.05444038     0.06000
C700        C  0.24129093  0.46966875  0.03355917    -0.13700
Br701      Br  0.21690140  0.49822424  0.98529908    -0.05800
Br702      Br  0.28786411  0.43530692  0.95832051    -0.00200
Br703      Br  0.14285005  0.42921773  0.04323005     0.00300
Br704      Br  0.28159270  0.48832749  0.02922820    -0.04100
Br705      Br  0.25119557  0.51261131  0.93582490     0.00400
Br706      Br  0.24750144  0.41564974  0.00561055    -0.03400
Br707      Br  0.16851906  0.41950718  0.99441655    -0.04300
Br708      Br  0.25635787  0.49431122  0.07858725    -0.00300
C709        C  0.40091797  0.54237253  0.95129529     0.01100
C710        C  0.38885894  0.54266522  0.97262731     0.03900
C711        C  0.40607197  0.55485716  0.99172679    -0.12100
C712        C  0.43445642  0.56246261  0.99082859     0.23200
C713        C  0.44571505  0.55850722  0.97053453    -0.12700
C714        C  0.42954103  0.54996603  0.95041089     0.04700
C715        C  0.45259986  0.57653043  0.01083030     0.27100
C716        C  0.47118710  0.60590497  0.01037421    -0.13400
C717        C  0.48426719  0.62013250  0.03062244     0.05200
C718        C  0.47645914  0.60557487  0.05176975    -0.09300
C719        C  0.45935643  0.57591184  0.05199450     0.06000
C720        C  0.44839456  0.56134691  0.03129835    -0.13700
Br721      Br  0.48378402  0.56617764  0.97024628    -0.05800
Br722      Br  0.34857039  0.52515896  0.97657707    -0.00200
Br723      Br  0.51201709  0.65995274  0.02945936     0.00300
Br724      Br  0.42538362  0.52076442  0.03106610    -0.04100
Br725      Br  0.44796007  0.55124063  0.92186578     0.00400
Br726      Br  0.39115800  0.56344656  0.01839629    -0.03400
Br727      Br  0.47611094  0.62721742  0.98272844    -0.04300
Br728      Br  0.44763538  0.55536660  0.08053669    -0.00300
C729        C  0.40549993  0.60894773  0.87455184     0.01100
C730        C  0.41665347  0.61886953  0.85242445     0.03900
C731        C  0.43619092  0.64782543  0.84881023    -0.12100
C732        C  0.44421798  0.66688256  0.86720672     0.23200
C733        C  0.43344076  0.65687472  0.88933664    -0.12700
C734        C  0.41440544  0.62806070  0.89306066     0.04700
C735        C  0.46117430  0.69779920  0.86340334     0.27100
C736        C  0.49044795  0.71302281  0.86720510    -0.13400
C737        C  0.50489749  0.74250894  0.87022340     0.05200
C738        C  0.48986181  0.75662383  0.86955802    -0.09300
C739        C  0.46130834  0.74163540  0.86284749     0.06000
C740        C  0.44697658  0.71231683  0.86006017    -0.13700
Br741      Br  0.44405484  0.68302381  0.91453306    -0.05800
Br742      Br  0.40373228  0.59321779  0.82688570    -0.00200
Br743      Br  0.54442541  0.76271454  0.87756059     0.00300
Br744      Br  0.40699877  0.69148145  0.85423967    -0.04100
Br745      Br  0.40121497  0.61496026  0.92390967     0.00400
Br746      Br  0.45150539  0.66172228  0.81870008    -0.03400
Br747      Br  0.51000255  0.69299205  0.87029330    -0.04300
Br748      Br  0.44113289  0.76097519  0.85855621    -0.00300
C749        C  0.20198310  0.60552200  0.87262240     0.01100
C750        C  0.20166863  0.59735240  0.84963910     0.03900
C751        C  0.21288497  0.58042222  0.84391529    -0.12100
C752        C  0.22479494  0.57207034  0.86105892     0.23200
C753        C  0.22545890  0.58053693  0.88389756    -0.12700
C754        C  0.21358480  0.59661660  0.88976924     0.04700
C755        C  0.23784769  0.55530154  0.85566004     0.27100
C756        C  0.22329031  0.52637004  0.86113869    -0.13400
C757        C  0.23839247  0.51281368  0.86507604     0.05200
C758        C  0.26794578  0.52819369  0.86279925    -0.09300
C759        C  0.28165558  0.55566204  0.85347483     0.06000
C760        C  0.26673466  0.56942830  0.85037174    -0.13700
Br761      Br  0.24376839  0.57096148  0.90716717    -0.05800
Br762      Br  0.18756680  0.61060551  0.82579989    -0.00200
Br763      Br  0.21897781  0.47458542  0.87628471     0.00300
Br764      Br  0.28648271  0.60867530  0.84174225    -0.04100
Br765      Br  0.21252155  0.60539686  0.92173691     0.00400
Br766      Br  0.21288714  0.56931081  0.81262808    -0.03400
Br767      Br  0.18309978  0.50648375  0.86567470    -0.04300
Br768      Br  0.32142559  0.57515960  0.84648447    -0.00300
C769        C  0.92556744  0.35408546  0.10923309     0.01100
C770        C  0.93966440  0.35314270  0.12890388     0.03900
C771        C  0.96840641  0.36213072  0.12767200    -0.12100
C772        C  0.98340149  0.37302724  0.10696641     0.23200
C773        C  0.96871349  0.37136705  0.08682888    -0.12700
C774        C  0.93972398  0.36160127  0.08793984     0.04700
C775        C  0.01444013  0.39246447  0.10791423     0.27100
C776        C  0.02468379  0.41993445  0.11591534    -0.13400
C777        C  0.05367693  0.43866188  0.11851598     0.05200
C778        C  0.07330405  0.43062054  0.11196504    -0.09300
C779        C  0.06284455  0.40304851  0.10350577     0.06000
C780        C  0.03346096  0.38394852  0.10179781    -0.13700
Br781      Br  0.98889658  0.38492520  0.05823173    -0.05800
Br782      Br  0.92068007  0.34302472  0.15816953    -0.00200
Br783      Br  0.06520858  0.47496012  0.13213290     0.00300
Br784      Br  0.01900350  0.34616627  0.09090057    -0.04100
Br785      Br  0.91945438  0.35922249  0.06051569     0.00400
Br786      Br  0.98827294  0.36296620  0.15496488    -0.03400
Br787      Br  0.99849779  0.43202096  0.12330327    -0.04300
Br788      Br  0.08831331  0.39159880  0.09302763    -0.00300
C789        C  0.41657038  0.08026328  0.11645014     0.01100
C790        C  0.41426334  0.06245022  0.13463643     0.03900
C791        C  0.39765594  0.03299348  0.13237916    -0.12100
C792        C  0.38133065  0.02085810  0.11250830     0.23200
C793        C  0.38089626  0.03883492  0.09553165    -0.12700
C794        C  0.39929746  0.06841556  0.09707262     0.04700
C795        C  0.36711917  0.98959197  0.10902926     0.27100
C796        C  0.37879284  0.97873992  0.09357811    -0.13400
C797        C  0.37034161  0.95002968  0.09444214     0.05200
C798        C  0.35125962  0.93213621  0.11145749    -0.09300
C799        C  0.33778283  0.94231889  0.12554978     0.06000
C800        C  0.34494191  0.97068113  0.12369039    -0.13700
Br801      Br  0.35545035  0.02285576  0.07007276    -0.05800
Br802      Br  0.43446741  0.07863203  0.16275556    -0.00200
Br803      Br  0.38529317  0.93517656  0.07241157     0.00300
Br804      Br  0.32556405  0.98423570  0.14213198    -0.04100
Br805      Br  0.40248446  0.09244684  0.07199745     0.00400
Br806      Br  0.39914254  0.00947147  0.15605166    -0.03400
Br807      Br  0.40789060  0.00337662  0.07218892    -0.04300
Br808      Br  0.31198649  0.91851044  0.14916574    -0.00300
C809        C  0.74099047  0.27207915  0.12560669     0.01100
C810        C  0.72265753  0.25592126  0.10782922     0.03900
C811        C  0.69355299  0.23961537  0.11188688    -0.12100
C812        C  0.68265402  0.24005485  0.13362574     0.23200
C813        C  0.70115162  0.25449591  0.15186621    -0.12700
C814        C  0.73039710  0.27052974  0.14783854     0.04700
C815        C  0.65213845  0.22932395  0.13595533     0.27100
C816        C  0.64247448  0.24782583  0.13180822    -0.13400
C817        C  0.61346623  0.23743351  0.13044201     0.05200
C818        C  0.59381167  0.20813823  0.13236174    -0.09300
C819        C  0.60362881  0.18988048  0.13806565     0.06000
C820        C  0.63273792  0.20059800  0.13998657    -0.13700
Br821      Br  0.68617282  0.25362827  0.18187614    -0.05800
Br822      Br  0.73733373  0.25792694  0.07743722    -0.00200
Br823      Br  0.60109398  0.26382632  0.12617303     0.00300
Br824      Br  0.64640957  0.17584148  0.14685547    -0.04100
Br825      Br  0.75588114  0.29208934  0.17215144     0.00400
Br826      Br  0.66842249  0.21819788  0.08725123    -0.03400
Br827      Br  0.66933800  0.28738520  0.12658758    -0.04300
Br828      Br  0.57800576  0.14976519  0.14131313    -0.00300
C829        C  0.94063119  0.60215776  0.89193688     0.01100
C830        C  0.95947190  0.60366738  0.87490459     0.03900
C831        C  0.98860953  0.62052304  0.87817611    -0.12100
C832        C  0.99927743  0.63767265  0.89773071     0.23200
C833        C  0.98055470  0.63914718  0.91326311    -0.12700
C834        C  0.95114468  0.62111149  0.91054861     0.04700
C835        C  0.02977386  0.65093268  0.90281480     0.27100
C836        C  0.03893341  0.63478401  0.91411911    -0.13400
C837        C  0.06743695  0.64290134  0.91315950     0.05200
C838        C  0.08693836  0.66684204  0.90029748    -0.09300
C839        C  0.07832049  0.68482996  0.89138224     0.06000
C840        C  0.04973540  0.67685989  0.89274706    -0.13700
Br841      Br  0.99544683  0.66486404  0.93868328    -0.05800
Br842      Br  0.94527425  0.58259861  0.84682737    -0.00200
Br843      Br  0.07947804  0.62090990  0.92956567     0.00300
Br844      Br  0.03732906  0.70033717  0.87959043    -0.04100
Br845      Br  0.92564056  0.62134656  0.93288644     0.00400
Br846      Br  0.01395287  0.61812714  0.85682471    -0.03400
Br847      Br  0.01179185  0.60007832  0.92920132    -0.04300
Br848      Br  0.10483856  0.71914528  0.87568532    -0.00300
C849        C  0.88570832  0.48958782  0.95139450     0.01100
C850        C  0.88094882  0.46220218  0.95313405     0.03900
C851        C  0.88389684  0.45231911  0.97436977    -0.12100
C852        C  0.89097995  0.46968571  0.99381228     0.23200
C853        C  0.89864730  0.49802357  0.99154284    -0.12700
C854        C  0.89658828  0.50815346  0.97006795     0.04700
C855        C  0.88489936  0.45624293  0.01652931     0.27100
C856        C  0.85740284  0.44411135  0.02535208    -0.13400
C857        C  0.84887233  0.42526901  0.04380306     0.05200
C858        C  0.86802493  0.41879783  0.05363604    -0.09300
C859        C  0.89636605  0.43325717  0.04625229     0.06000
C860        C  0.90466234  0.45167295  0.02740724    -0.13700
Br861      Br  0.90856044  0.52170489  0.01820264    -0.05800
Br862      Br  0.86684897  0.43703220  0.92728483    -0.00200
Br863      Br  0.81098889  0.40894314  0.05570577     0.00300
Br864      Br  0.94250055  0.46942391  0.01548709    -0.04100
Br865      Br  0.90697098  0.54685747  0.96620131     0.00400
Br866      Br  0.87461730  0.41378701  0.97753905    -0.03400
Br867      Br  0.83098909  0.45225566  0.01125524    -0.04300
Br868      Br  0.92359332  0.42700415  0.06097166    -0.00300
C869        C  0.64752126  0.08581470  0.89062429     0.01100
C870        C  0.66260699  0.07934277  0.90642133     0.03900
C871        C  0.65569970  0.05115282  0.90945023    -0.12100
C872        C  0.63338170  0.02914418  0.89704562     0.23200
C873        C  0.61845454  0.03562860  0.88122507    -0.12700
C874        C  0.62593756  0.06375485  0.87757610     0.04700
C875        C  0.62499515  0.99900875  0.90026675     0.27100
C876        C  0.63095683  0.98509755  0.88290087    -0.13400
C877        C  0.61600920  0.95538503  0.88205936     0.05200
C878        C  0.59592452  0.93945966  0.89911113    -0.09300
C879        C  0.59295166  0.95339480  0.91814126     0.06000
C880        C  0.60706615  0.98306334  0.91857938    -0.13700
Br881      Br  0.58697346  0.00562610  0.86486680    -0.05800
Br882      Br  0.69198069  0.10875830  0.92468955    -0.00200
Br883      Br  0.62045188  0.93646803  0.85617523     0.00300
Br884      Br  0.59965883  0.00161127  0.94313743    -0.04100
Br885      Br  0.60754684  0.07194442  0.85343736     0.00400
Br886      Br  0.67648791  0.04249976  0.93081855    -0.03400
Br887      Br  0.65776697  0.00689162  0.85914843    -0.04300
Br888      Br  0.56764995  0.93146979  0.94274556    -0.00300
C889        C  0.53163199  0.14232949  0.05489608     0.01100
C890        C  0.51211695  0.12502760  0.03816320     0.03900
C891        C  0.52174993  0.12001413  0.01738110    -0.12100
C892        C  0.55085956  0.13320041  0.01309714     0.23200
C893        C  0.57020776  0.14888579  0.03049348    -0.12700
C894        C  0.56053132  0.15304658  0.05149715     0.04700
C895        C  0.56144158  0.13546832  0.98939514     0.27100
C896        C  0.57053154  0.11752871  0.98140789    -0.13400
C897        C  0.58516812  0.12339959  0.96038853     0.05200
C898        C  0.59122893  0.14756537  0.94782809    -0.09300
C899        C  0.58028857  0.16420314  0.95502978     0.06000
C900        C  0.56521628  0.15803535  0.97567081    -0.13700
Br901      Br  0.61014234  0.16710854  0.02469574    -0.05800
Br902      Br  0.47252313  0.10980057  0.04316822    -0.00200
Br903      Br  0.59827571  0.09946393  0.94937253     0.00300
Br904      Br  0.55117418  0.18159531  0.98587792    -0.04100
Br905      Br  0.58707720  0.17542054  0.07499463     0.00400
Br906      Br  0.49548031  0.09689727  0.99402923    -0.03400
Br907      Br  0.56419162  0.08600210  0.99985331    -0.04300
Br908      Br  0.58671765  0.19608220  0.93688395    -0.00300
C909        C  0.72639185  0.20184157  0.95438051     0.01100
C910        C  0.71583838  0.20402602  0.97585094     0.03900
C911        C  0.73418211  0.21681559  0.99440820    -0.12100
C912        C  0.76310429  0.22676637  0.99196000     0.23200
C913        C  0.77290769  0.22093491  0.97164124    -0.12700
C914        C  0.75466952  0.20856964  0.95280081     0.04700
C915        C  0.78304599  0.24535130  0.01002582     0.27100
C916        C  0.79652822  0.27482155  0.00768027    -0.13400
C917        C  0.81003058  0.29243906  0.02656673     0.05200
C918        C  0.80944962  0.28069937  0.04821915    -0.09300
C919        C  0.79872733  0.25140669  0.04982573     0.06000
C920        C  0.78588658  0.23388874  0.03063384    -0.13700
Br921      Br  0.81157818  0.23078245  0.96958131    -0.05800
Br922      Br  0.67600960  0.18904719  0.98007815    -0.00200
Br923      Br  0.82910584  0.33282444  0.02269409     0.00300
Br924      Br  0.77080794  0.19391438  0.03262713    -0.04100
Br925      Br  0.76930933  0.20262490  0.92470942     0.00400
Br926      Br  0.71973428  0.22180035  0.02294021    -0.03400
Br927      Br  0.79510739  0.29107384  0.97889578    -0.04300
Br928      Br  0.79901334  0.23455217  0.07860495    -0.00300
C929        C  0.74108995  0.27347865  0.87766497     0.01100
C930        C  0.74323737  0.28548945  0.85592208     0.03900
C931        C  0.75866345  0.31509461  0.85320397    -0.12100
C932        C  0.77237068  0.33269135  0.87215911     0.23200
C933        C  0.77178984  0.32049113  0.89348720    -0.12700
C934        C  0.75619542  0.29104357  0.89619420     0.04700
C935        C  0.78544325  0.36386730  0.87050416     0.27100
C936        C  0.81456090  0.38161006  0.86658802    -0.13400
C937        C  0.82746783  0.41116044  0.86843078     0.05200
C938        C  0.81130915  0.42313137  0.87494249    -0.09300
C939        C  0.78166684  0.40526900  0.87673888     0.06000
C940        C  0.76892028  0.37584073  0.87476994    -0.13700
Br941      Br  0.79072474  0.34426177  0.91948600    -0.05800
Br942      Br  0.72410361  0.26132201  0.83024809    -0.00200
Br943      Br  0.86742555  0.43455357  0.86289660     0.00300
Br944      Br  0.72878072  0.35157633  0.87911392    -0.04100
Br945      Br  0.75402558  0.27456682  0.92577063     0.00400
Br946      Br  0.75955536  0.33172142  0.82400877    -0.03400
Br947      Br  0.83687155  0.36502999  0.86000003    -0.04300
Br948      Br  0.75797299  0.42086154  0.88123135    -0.00300
C949        C  0.34853669  0.43152502  0.89835165     0.01100
C950        C  0.33590212  0.40562017  0.88658587     0.03900
C951        C  0.34682066  0.38778438  0.88893849    -0.12100
C952        C  0.37056492  0.39597739  0.90277697     0.23200
C953        C  0.38117162  0.42026298  0.91639754    -0.12700
C954        C  0.37010507  0.43786505  0.91429611     0.04700
C955        C  0.38818093  0.38329675  0.89921158     0.27100
C956        C  0.38829978  0.36420902  0.91512516    -0.13400
C957        C  0.40849711  0.35613502  0.91308857     0.05200
C958        C  0.42834043  0.36698682  0.89502419    -0.09300
C959        C  0.42684877  0.38448132  0.87832085     0.06000
C960        C  0.40727552  0.39304018  0.88063925    -0.13700
Br961      Br  0.41279617  0.43083041  0.93631555    -0.05800
Br962      Br  0.30578736  0.39597507  0.86539697    -0.00200
Br963      Br  0.41023164  0.33183306  0.93574028     0.00300
Br964      Br  0.40819643  0.42006608  0.85924854    -0.04100
Br965      Br  0.38543802  0.47124699  0.93285913     0.00400
Br966      Br  0.33111314  0.35333082  0.87169573    -0.03400
Br967      Br  0.36191111  0.35056894  0.94031910    -0.04300
Br968      Br  0.45193542  0.39700615  0.85212955    -0.00300
C969        C  0.45794514  0.20162996  0.05126232     0.01100
C970        C  0.47138211  0.20387852  0.03001068     0.03900
C971        C  0.46853830  0.21844619  0.01151745    -0.12100
C972        C  0.45133685  0.23005119  0.01367060     0.23200
C973        C  0.43519122  0.22486685  0.03382305    -0.12700
C974        C  0.43858055  0.21086567  0.05266037     0.04700
C975        C  0.45289626  0.25008674  0.99576533     0.27100
C976        C  0.46972384  0.27934014  0.99958991    -0.13400
C977        C  0.47545390  0.29849885  0.98158698     0.05200
C978        C  0.46565493  0.28861815  0.95919514    -0.09300
C979        C  0.44718919  0.25936950  0.95574558     0.06000
C980        C  0.44038401  0.24028881  0.97412871    -0.13700
Br981      Br  0.40977371  0.23862829  0.03592116    -0.05800
Br982      Br  0.49437732  0.18743452  0.02615153    -0.00200
Br983      Br  0.49714607  0.33847345  0.98775251     0.00300
Br984      Br  0.41516723  0.20045146  0.96947429    -0.04100
Br985      Br  0.41841558  0.20669847  0.08078033     0.00400
Br986      Br  0.49009653  0.22436384  0.98377422    -0.03400
Br987      Br  0.48677445  0.29328043  0.02915015    -0.04300
Br988      Br  0.43344540  0.24477272  0.92550745    -0.00300
C989        C  0.60615191  0.42411699  0.88077837     0.01100
C990        C  0.62185073  0.41132653  0.87593742     0.03900
C991        C  0.65125526  0.42790417  0.87390647    -0.12100
C992        C  0.66493141  0.45743352  0.87556712     0.23200
C993        C  0.64906843  0.47040576  0.87837355    -0.12700
C994        C  0.61971666  0.45377360  0.88133633     0.04700
C995        C  0.69588611  0.47421129  0.87796418     0.27100
C996        C  0.70735163  0.48166882  0.90010642    -0.13400
C997        C  0.73643317  0.49468851  0.90309931     0.05200
C998        C  0.75417343  0.49968305  0.88409687    -0.09300
C999        C  0.74295395  0.49314642  0.86184504     0.06000
C1000       C  0.71373987  0.48067077  0.85874442    -0.13700
Br1001     Br  0.66805487  0.51092749  0.88024579    -0.05800
Br1002     Br  0.60311414  0.37098384  0.87232502    -0.00200
Br1003     Br  0.75182175  0.50465288  0.93355694     0.00300
Br1004     Br  0.69788387  0.47115474  0.82845039    -0.04100
Br1005     Br  0.59882199  0.47172983  0.88864113     0.00400
Br1006     Br  0.67301535  0.40999294  0.87104851    -0.03400
Br1007     Br  0.68305019  0.47232579  0.92662832    -0.04300
Br1008     Br  0.76729410  0.49944601  0.83600726    -0.00300
C1009       C  0.53181671  0.28809185  0.88369207     0.01100
C1010       C  0.53541956  0.28299637  0.86065214     0.03900
C1011       C  0.54857276  0.26772344  0.85542265    -0.12100
C1012       C  0.55900376  0.25851769  0.87320208     0.23200
C1013       C  0.55509679  0.26347031  0.89621577    -0.12700
C1014       C  0.54061458  0.27724218  0.90142604     0.04700
C1015       C  0.57359191  0.24304818  0.86819924     0.27100
C1016       C  0.55884867  0.21354642  0.87067758    -0.13400
C1017       C  0.57363049  0.19928235  0.87136435     0.05200
C1018       C  0.60325022  0.21454892  0.86915700    -0.09300
C1019       C  0.61750755  0.24359468  0.86402025     0.06000
C1020       C  0.60280463  0.25793910  0.86396881    -0.13700
Br1021     Br  0.57074248  0.25255994  0.92069138    -0.05800
Br1022     Br  0.52357533  0.29805027  0.83642466    -0.00200
Br1023     Br  0.55339012  0.15941090  0.87778869     0.00300
Br1024     Br  0.62296276  0.29827958  0.86000329    -0.04100
Br1025     Br  0.53203114  0.28056570  0.93300241     0.00400
Br1026     Br  0.55293523  0.25988005  0.82404124    -0.03400
Br1027     Br  0.51855347  0.19319348  0.87500529    -0.04300
Br1028     Br  0.65736289  0.26375036  0.85748422    -0.00300
C1029       C  0.58652493  0.66314201  0.11038159     0.01100
C1030       C  0.58263993  0.64129580  0.09559991     0.03900
C1031       C  0.60089308  0.63094860  0.09661428    -0.12100
C1032       C  0.62455469  0.64391298  0.11102760     0.23200
C1033       C  0.63064194  0.66824025  0.12339651    -0.12700
C1034       C  0.61121526  0.67735927  0.12367043     0.04700
C1035       C  0.64006884  0.62927044  0.11569364     0.27100
C1036       C  0.63322413  0.61245958  0.13555616    -0.13400
C1037       C  0.64360952  0.59440970  0.13835223     0.05200
C1038       C  0.66013736  0.59226452  0.12098599    -0.09300
C1039       C  0.66841335  0.61024741  0.10173228     0.06000
C1040       C  0.65863312  0.62900900  0.09924353    -0.13700
Br1041     Br  0.66460994  0.68760658  0.14122178    -0.05800
Br1042     Br  0.55188276  0.62509308  0.07413758    -0.00200
Br1043     Br  0.63426821  0.57169654  0.16579933     0.00300
Br1044     Br  0.66896757  0.65302073  0.07263208    -0.04100
Br1045     Br  0.61703241  0.70711962  0.14416785     0.00400
Br1046     Br  0.59174920  0.59715326  0.08002845    -0.03400
Br1047     Br  0.60748280  0.61217049  0.15808843    -0.04300
Br1048     Br  0.69079582  0.60731169  0.07780501    -0.00300
C1049       C  0.81754232  0.55813816  0.95819849     0.01100
C1050       C  0.80790147  0.57705417  0.95492724     0.03900
C1051       C  0.79197012  0.58046253  0.97223697    -0.12100
C1052       C  0.78457277  0.56428034  0.99250232     0.23200
C1053       C  0.79508790  0.54636002  0.99615999    -0.12700
C1054       C  0.81228977  0.54412064  0.97957512     0.04700
C1055       C  0.76603493  0.56579735  0.01039572     0.27100
C1056       C  0.77787762  0.58027311  0.03100219    -0.13400
C1057       C  0.76072955  0.57510719  0.05053567     0.05200
C1058       C  0.73135390  0.55566205  0.04936738    -0.09300
C1059       C  0.71923917  0.54507492  0.02764426     0.06000
C1060       C  0.73650649  0.54954809  0.00835863    -0.13700
Br1061     Br  0.78456583  0.52351323  0.02358306    -0.05800
Br1062     Br  0.81421246  0.59677545  0.92623177    -0.00200
Br1063     Br  0.77834639  0.59326980  0.07895306     0.00300
Br1064     Br  0.71970764  0.53194002  0.97956115    -0.04100
Br1065     Br  0.82880274  0.52177561  0.98654324     0.00400
Br1066     Br  0.77943980  0.60664882  0.96804460    -0.03400
Br1067     Br  0.81806122  0.60568225  0.03261671    -0.04300
Br1068     Br  0.67887303  0.52472582  0.02421916    -0.00300
C1069       C  0.54277412  0.42689356  0.95835488     0.01100
C1070       C  0.52440355  0.43464197  0.96786814     0.03900
C1071       C  0.53152346  0.44975903  0.98858981    -0.12100
C1072       C  0.55656321  0.45638829  0.99978061     0.23200
C1073       C  0.57585091  0.45057750  0.98926482    -0.12700
C1074       C  0.56903880  0.43599732  0.96853614     0.04700
C1075       C  0.56168013  0.46574102  0.02380547     0.27100
C1076       C  0.58035297  0.49439364  0.02864726    -0.13400
C1077       C  0.59629692  0.50194604  0.04880155     0.05200
C1078       C  0.59322753  0.48075282  0.06382964    -0.09300
C1079       C  0.57138022  0.45268229  0.06078096     0.06000
C1080       C  0.55531628  0.44517186  0.04075303    -0.13700
Br1081     Br  0.61098131  0.46094659  0.00405778    -0.05800
Br1082     Br  0.48866508  0.42250837  0.95369242    -0.00200
Br1083     Br  0.62375678  0.54081450  0.05510735     0.00300
Br1084     Br  0.52767267  0.40615721  0.03484200    -0.04100
Br1085     Br  0.59561635  0.42788002  0.95443594     0.00400
Br1086     Br  0.50693180  0.46063712  0.00212835    -0.03400
Br1087     Br  0.58638472  0.52258659  0.00638888    -0.04300
Br1088     Br  0.56578775  0.42414722  0.08266704    -0.00300
C1089       C  0.51840800  0.26695865  0.13248070     0.01100
C1090       C  0.51680238  0.28558590  0.11711941     0.03900
C1091       C  0.53262408  0.31478254  0.12102579    -0.12100
C1092       C  0.54940754  0.32546970  0.14080501     0.23200
C1093       C  0.54880719  0.30662793  0.15732559    -0.12700
C1094       C  0.53383413  0.27742691  0.15290944     0.04700
C1095       C  0.56980460  0.35633554  0.14259725     0.27100
C1096       C  0.59805668  0.36741025  0.13597774    -0.13400
C1097       C  0.61624173  0.39665855  0.13317499     0.05200
C1098       C  0.60603193  0.41508337  0.13617251    -0.09300
C1099       C  0.57830341  0.40405698  0.14475526     0.06000
C1100       C  0.56045938  0.37479676  0.14819370    -0.13700
Br1101     Br  0.56975951  0.32108771  0.18530784    -0.05800
Br1102     Br  0.49474749  0.27113769  0.08965308    -0.00200
Br1103     Br  0.65532919  0.41122524  0.12561053     0.00300
Br1104     Br  0.52258321  0.35954952  0.15953367    -0.04100
Br1105     Br  0.53577638  0.25184258  0.17404208     0.00400
Br1106     Br  0.53322720  0.34025764  0.09820193    -0.03400
Br1107     Br  0.61148396  0.34227652  0.12950474    -0.04300
Br1108     Br  0.56331359  0.42810846  0.15013608    -0.00300
C1109       C  0.74108377  0.48977151  0.12209307     0.01100
C1110       C  0.75250113  0.49132759  0.14401723     0.03900
C1111       C  0.76899262  0.47912292  0.14786945    -0.12100
C1112       C  0.77342816  0.46467411  0.13005756     0.23200
C1113       C  0.76298443  0.46411903  0.10800494    -0.12700
C1114       C  0.74747905  0.47713293  0.10392090     0.04700
C1115       C  0.78776641  0.44871517  0.13423862     0.27100
C1116       C  0.81574364  0.45981045  0.12678107    -0.13400
C1117       C  0.82688677  0.44217623  0.12509217     0.05200
C1118       C  0.81020679  0.41346004  0.13122051    -0.09300
C1119       C  0.78317748  0.40304421  0.14061504     0.06000
C1120       C  0.77196366  0.42063345  0.14213051    -0.13700
Br1121     Br  0.76904283  0.44446332  0.08344124    -0.05800
Br1122     Br  0.74415973  0.50843031  0.16913341    -0.00200
Br1123     Br  0.86383308  0.45668164  0.11189191     0.00300
Br1124     Br  0.73416664  0.40574182  0.15344407    -0.04100
Br1125     Br  0.73571106  0.47823330  0.07302892     0.00400
Br1126     Br  0.78510195  0.48153136  0.17756176    -0.03400
Br1127     Br  0.83791146  0.49864576  0.11716535    -0.04300
Br1128     Br  0.76121525  0.36432754  0.15054949    -0.00300
C1129       C  0.67134031  0.15612016  0.69149205     0.01100
C1130       C  0.65484289  0.13092033  0.70389738     0.03900
C1131       C  0.65589450  0.13117604  0.72797892    -0.12100
C1132       C  0.67387032  0.15652893  0.73955593     0.23200
C1133       C  0.69246361  0.18096510  0.72709460    -0.12700
C1134       C  0.69120647  0.18081286  0.70308818     0.04700
C1135       C  0.67204933  0.15823714  0.76471877     0.27100
C1136       C  0.65655565  0.16947987  0.77408949    -0.13400
C1137       C  0.65585918  0.17266668  0.79790946     0.05200
C1138       C  0.66948139  0.16327634  0.81247827    -0.09300
C1139       C  0.68497526  0.15199114  0.80306075     0.06000
C1140       C  0.68673757  0.15005346  0.77916854    -0.13700
Br1141     Br  0.71929452  0.21475184  0.74314671    -0.05800
Br1142     Br  0.63225150  0.09587651  0.68779764    -0.00200
Br1143     Br  0.63801761  0.19178057  0.81037773     0.00300
Br1144     Br  0.70966171  0.13674940  0.76611566    -0.04100
Br1145     Br  0.71636240  0.21479348  0.68646858     0.00400
Br1146     Br  0.63267553  0.09701076  0.74515922    -0.03400
Br1147     Br  0.63649245  0.18074283  0.75413859    -0.04300
Br1148     Br  0.70295447  0.13815783  0.82280055    -0.00300
C1149       C  0.85697371  0.35172132  0.31177342     0.01100
C1150       C  0.88250008  0.36757179  0.29956721     0.03900
C1151       C  0.88271641  0.36642750  0.27541883    -0.12100
C1152       C  0.85741501  0.34953302  0.26342388     0.23200
C1153       C  0.83188814  0.33416463  0.27556945    -0.12700
C1154       C  0.83170145  0.33488289  0.29963270     0.04700
C1155       C  0.85716346  0.34861506  0.23797625     0.27100
C1156       C  0.85474083  0.36887747  0.22555019    -0.13400
C1157       C  0.85295154  0.36741355  0.20150982     0.05200
C1158       C  0.85292659  0.34512035  0.18957503    -0.09300
C1159       C  0.85474012  0.32440122  0.20227748     0.06000
C1160       C  0.85727242  0.32645771  0.22634983    -0.13700
Br1161     Br  0.79697582  0.31295569  0.25901507    -0.05800
Br1162     Br  0.91726949  0.38982555  0.31596905    -0.00200
Br1163     Br  0.84894172  0.39555549  0.18558830     0.00300
Br1164     Br  0.86086427  0.29891997  0.24367091    -0.04100
Br1165     Br  0.79641600  0.31322845  0.31569304     0.00400
Br1166     Br  0.91749293  0.38824256  0.25862748    -0.03400
Br1167     Br  0.85292913  0.39821339  0.24181945    -0.04300
Br1168     Br  0.85443282  0.29337839  0.18709130    -0.00300
C1169       C  0.79871229  0.27312975  0.44721151     0.01100
C1170       C  0.76946564  0.25425122  0.44930323     0.03900
C1171       C  0.75844512  0.23582595  0.46812837    -0.12100
C1172       C  0.77637240  0.23765363  0.48585988     0.23200
C1173       C  0.80578851  0.25438144  0.48269447    -0.12700
C1174       C  0.81700535  0.27186873  0.46313898     0.04700
C1175       C  0.76406150  0.22869003  0.50925715     0.27100
C1176       C  0.75778798  0.24662969  0.52147727    -0.13400
C1177       C  0.74220500  0.23750095  0.54195766     0.05200
C1178       C  0.73241840  0.21003530  0.55050583    -0.09300
C1179       C  0.74008564  0.19259678  0.53892378     0.06000
C1180       C  0.75589986  0.20196227  0.51831325    -0.13700
Br1181     Br  0.83035706  0.25434003  0.50579190    -0.05800
Br1182     Br  0.74423748  0.25505567  0.42721237    -0.00200
Br1183     Br  0.73492450  0.26345428  0.55824584     0.00300
Br1184     Br  0.76570493  0.17804587  0.50206165    -0.04100
Br1185     Br  0.85711977  0.29544422  0.45896288     0.00400
Br1186     Br  0.71846283  0.20957207  0.47077051    -0.03400
Br1187     Br  0.76976804  0.28372082  0.50948288    -0.04300
Br1188     Br  0.72745581  0.15524616  0.55026946    -0.00300
C1189       C  0.85633285  0.53232894  0.69496373     0.01100
C1190       C  0.88158621  0.53921238  0.70604372     0.03900
C1191       C  0.88384777  0.54304168  0.72996282    -0.12100
C1192       C  0.86106418  0.54053218  0.74273020     0.23200
C1193       C  0.83633431  0.53489580  0.73153240    -0.12700
C1194       C  0.83378165  0.53035485  0.70778696     0.04700
C1195       C  0.86166173  0.54087571  0.76809470     0.27100
C1196       C  0.84775899  0.51508649  0.78004440    -0.13400
C1197       C  0.84618610  0.51482374  0.80403296     0.05200
C1198       C  0.85952970  0.54036693  0.81630864    -0.09300
C1199       C  0.87367530  0.56625143  0.80438334     0.06000
C1200       C  0.87443564  0.56648567  0.78023867    -0.13700
Br1201     Br  0.80571855  0.53288454  0.74899783    -0.05800
Br1202     Br  0.91336733  0.54438106  0.68836525    -0.00200
Br1203     Br  0.82458565  0.47929489  0.81999358     0.00300
Br1204     Br  0.89293870  0.60171848  0.76370963    -0.04100
Br1205     Br  0.79862150  0.51978531  0.69325869     0.00400
Br1206     Br  0.91793343  0.55140888  0.74534173    -0.03400
Br1207     Br  0.83092073  0.48000080  0.76341214    -0.04300
Br1208     Br  0.89303735  0.60126193  0.82102085    -0.00300
C1209       C  0.86326539  0.47859831  0.55495370     0.01100
C1210       C  0.88586227  0.47353556  0.55470301     0.03900
C1211       C  0.89180203  0.46334962  0.53460352    -0.12100
C1212       C  0.87502135  0.45751904  0.51500305     0.23200
C1213       C  0.85390399  0.46429519  0.51475956    -0.12700
C1214       C  0.84901437  0.47601978  0.53422354     0.04700
C1215       C  0.87788618  0.44261095  0.49498607     0.27100
C1216       C  0.88939037  0.45709316  0.47419494    -0.13400
C1217       C  0.88520222  0.44190992  0.45371935     0.05200
C1218       C  0.87051685  0.41209185  0.45424930    -0.09300
C1219       C  0.86224627  0.39803900  0.47564302     0.06000
C1220       C  0.86521112  0.41314359  0.49580373    -0.13700
Br1221     Br  0.83030138  0.45581602  0.48811752    -0.05800
Br1222     Br  0.90836853  0.47932380  0.58157022    -0.00200
Br1223     Br  0.89681939  0.46219874  0.42502904     0.00300
Br1224     Br  0.84948561  0.39310424  0.52423303    -0.04100
Br1225     Br  0.82378075  0.49006276  0.53139294     0.00400
Br1226     Br  0.92220883  0.45612900  0.53405304    -0.03400
Br1227     Br  0.90881442  0.49772299  0.47375276    -0.04300
Br1228     Br  0.84603168  0.35776498  0.47746417    -0.00300
C1229       C  0.73496773  0.26545683  0.63727466     0.01100
C1230       C  0.76285957  0.28261029  0.62935622     0.03900
C1231       C  0.77753934  0.31179719  0.63361923    -0.12100
C1232       C  0.76430103  0.32383091  0.64569454     0.23200
C1233       C  0.73778223  0.30619736  0.65593194    -0.12700
C1234       C  0.72302927  0.27706144  0.65159918     0.04700
C1235       C  0.77482362  0.35431020  0.64264099     0.27100
C1236       C  0.79183263  0.37450479  0.65912504    -0.13400
C1237       C  0.80265122  0.40342080  0.65492700     0.05200
C1238       C  0.79668684  0.41220352  0.63409734    -0.09300
C1239       C  0.77888632  0.39166573  0.61793471     0.06000
C1240       C  0.76768472  0.36292823  0.62242059    -0.13700
Br1241     Br  0.72057182  0.32244538  0.67389978    -0.05800
Br1242     Br  0.77955683  0.26681224  0.61016658    -0.00200
Br1243     Br  0.82443564  0.43077269  0.67815626     0.00300
Br1244     Br  0.74215935  0.33497432  0.60079020    -0.04100
Br1245     Br  0.68550794  0.25334286  0.66383661     0.00400
Br1246     Br  0.81458736  0.33590062  0.62076363    -0.03400
Br1247     Br  0.79973319  0.36236114  0.68752033    -0.04300
Br1248     Br  0.77084821  0.40238714  0.58872887    -0.00300
C1249       C  0.47954467  0.15518466  0.31531872     0.01100
C1250       C  0.47366173  0.13094874  0.30285239     0.03900
C1251       C  0.47101452  0.13047093  0.27880405    -0.12100
C1252       C  0.47428845  0.15419190  0.26709205     0.23200
C1253       C  0.47954989  0.17812818  0.27951097    -0.12700
C1254       C  0.48205989  0.17862644  0.30350347     0.04700
C1255       C  0.47488530  0.15517696  0.24162085     0.27100
C1256       C  0.50058017  0.16490489  0.23004700    -0.13400
C1257       C  0.50191007  0.16716533  0.20601272     0.05200
C1258       C  0.47730400  0.15909618  0.19321461    -0.09300
C1259       C  0.45158518  0.14977598  0.20493428     0.06000
C1260       C  0.45047071  0.14798790  0.22908298    -0.13700
Br1261     Br  0.48458818  0.21078434  0.26332880    -0.05800
Br1262     Br  0.46845978  0.09808827  0.31872781    -0.00200
Br1263     Br  0.53809211  0.18314755  0.19102534     0.00300
Br1264     Br  0.41559743  0.13586329  0.24516583    -0.04100
Br1265     Br  0.49074178  0.21238929  0.31968701     0.00400
Br1266     Br  0.46356563  0.09763183  0.26169424    -0.03400
Br1267     Br  0.53415986  0.17563330  0.24742096    -0.04300
Br1268     Br  0.41753923  0.13841535  0.18810727    -0.00300
C1269       C  0.53930652  0.14837762  0.45320210     0.01100
C1270       C  0.53786659  0.15996527  0.47448699     0.03900
C1271       C  0.54700634  0.15336839  0.49458063    -0.12100
C1272       C  0.55470736  0.13292505  0.49407636     0.23200
C1273       C  0.55262190  0.11869457  0.47358016    -0.12700
C1274       C  0.54693980  0.12772779  0.45291285     0.04700
C1275       C  0.56921799  0.12989487  0.51403480     0.27100
C1276       C  0.59869934  0.14267401  0.51324624    -0.13400
C1277       C  0.61333068  0.14446376  0.53320705     0.05200
C1278       C  0.59898286  0.13598126  0.55439597    -0.09300
C1279       C  0.56926850  0.12010149  0.55475720     0.06000
C1280       C  0.55436604  0.11681520  0.53438705    -0.13700
Br1281     Br  0.55899224  0.08773122  0.47394074    -0.05800
Br1282     Br  0.52327240  0.18479769  0.47688140    -0.00200
Br1283     Br  0.65319822  0.15855206  0.53153087     0.00300
Br1284     Br  0.51378172  0.09617624  0.53445800    -0.04100
Br1285     Br  0.55385041  0.11453966  0.42446735     0.00400
Br1286     Br  0.55071001  0.17380754  0.52250378    -0.03400
Br1287     Br  0.61960574  0.16036580  0.48547034    -0.04300
Br1288     Br  0.54886887  0.10412175  0.58294505    -0.00300
C1289       C  0.74657453  0.28405152  0.36166574     0.01100
C1290       C  0.73318902  0.25463364  0.35857933     0.03900
C1291       C  0.70441925  0.23896948  0.35303845    -0.12100
C1292       C  0.68919002  0.25261875  0.35082100     0.23200
C1293       C  0.70359936  0.28215741  0.34980194    -0.12700
C1294       C  0.73230587  0.29795537  0.35530301     0.04700
C1295       C  0.65885447  0.23701097  0.35668794     0.27100
C1296       C  0.63786060  0.22460268  0.33980420    -0.13400
C1297       C  0.60921468  0.21111604  0.34622161     0.05200
C1298       C  0.60178807  0.20997332  0.36951839    -0.09300
C1299       C  0.62286316  0.22105527  0.38640064     0.06000
C1300       C  0.65125454  0.23509412  0.37998661    -0.13700
Br1301     Br  0.68312486  0.30064108  0.34311553    -0.05800
Br1302     Br  0.75285769  0.23514551  0.36437416    -0.00200
Br1303     Br  0.58032002  0.19510294  0.32322276     0.00300
Br1304     Br  0.67986059  0.25262145  0.40327973    -0.04100
Br1305     Br  0.75154289  0.33857721  0.35490781     0.00400
Br1306     Br  0.68490845  0.19855577  0.35066732    -0.03400
Br1307     Br  0.64854585  0.22682689  0.30808071    -0.04300
Br1308     Br  0.61289705  0.21601088  0.41859465    -0.00300
C1309       C  0.48699408  0.34985898  0.69726592     0.01100
C1310       C  0.49365901  0.33286572  0.71054915     0.03900
C1311       C  0.49519610  0.33543627  0.73455252    -0.12100
C1312       C  0.49135913  0.35582415  0.74541435     0.23200
C1313       C  0.48554887  0.37341450  0.73223673    -0.12700
C1314       C  0.48278921  0.37008588  0.70827259     0.04700
C1315       C  0.49226349  0.35776988  0.77080727     0.27100
C1316       C  0.46728797  0.34190412  0.78360750    -0.13400
C1317       C  0.46807608  0.34230421  0.80769619     0.05200
C1318       C  0.49401132  0.35795159  0.81914355    -0.09300
C1319       C  0.51903574  0.37423985  0.80627820     0.06000
C1320       C  0.51806787  0.37439123  0.78215865    -0.13700
Br1321     Br  0.48153899  0.40212271  0.74718695    -0.05800
Br1322     Br  0.50271070  0.30734581  0.69603578    -0.00200
Br1323     Br  0.43335846  0.32265063  0.82494525     0.00300
Br1324     Br  0.55200808  0.39728504  0.76452290    -0.04100
Br1325     Br  0.47193143  0.39241360  0.69079466     0.00400
Br1326     Br  0.50249579  0.31093666  0.75276254    -0.03400
Br1327     Br  0.43199064  0.31945546  0.76794091    -0.04300
Br1328     Br  0.55489995  0.39536873  0.82148649    -0.00300
C1329       C  0.46876792  0.26832156  0.56272593     0.01100
C1330       C  0.48502165  0.25590729  0.55855409     0.03900
C1331       C  0.48189473  0.24125007  0.53809345    -0.12100
C1332       C  0.46206106  0.23833092  0.52173389     0.23200
C1333       C  0.44378833  0.24816709  0.52687088    -0.12700
C1334       C  0.44733019  0.26344185  0.54726026     0.04700
C1335       C  0.46376098  0.22888679  0.49816840     0.27100
C1336       C  0.48301769  0.24895185  0.48240746    -0.13400
C1337       C  0.48831699  0.24025478  0.46132262     0.05200
C1338       C  0.47462952  0.21133342  0.45579546    -0.09300
C1339       C  0.45479970  0.19126208  0.47129531     0.06000
C1340       C  0.44924436  0.20005813  0.49237544    -0.13700
Br1341     Br  0.41490078  0.24174087  0.50540596    -0.05800
Br1342     Br  0.51261636  0.25995303  0.58055172    -0.00200
Br1343     Br  0.51487749  0.26823357  0.44012419     0.00300
Br1344     Br  0.42288690  0.17268944  0.51390947    -0.04100
Br1345     Br  0.42460810  0.27968550  0.55308461     0.00400
Br1346     Br  0.50633675  0.22696736  0.53160437    -0.03400
Br1347     Br  0.50349355  0.28844040  0.49039906    -0.04300
Br1348     Br  0.43738455  0.15169103  0.46463821    -0.00300
C1349       C  0.59831973  0.41593779  0.63359058     0.01100
C1350       C  0.61878613  0.42474504  0.61608013     0.03900
C1351       C  0.64742843  0.44105907  0.62142644    -0.12100
C1352       C  0.65587055  0.45099882  0.64391629     0.23200
C1353       C  0.63542998  0.44365981  0.66124304    -0.12700
C1354       C  0.60664742  0.42548047  0.65622096     0.04700
C1355       C  0.68642065  0.46800072  0.64891778     0.27100
C1356       C  0.70037259  0.45433328  0.65633285    -0.13400
C1357       C  0.72976272  0.46796424  0.65422552     0.05200
C1358       C  0.74510060  0.49477297  0.64385368    -0.09300
C1359       C  0.73157057  0.50965869  0.63883376     0.06000
C1360       C  0.70221624  0.49638032  0.64178510    -0.13700
Br1361     Br  0.64710736  0.45780954  0.69184160    -0.05800
Br1362     Br  0.60765216  0.41529529  0.58443985    -0.00200
Br1363     Br  0.74896982  0.44909855  0.66388824     0.00300
Br1364     Br  0.68307678  0.51584638  0.63391252    -0.04100
Br1365     Br  0.57897419  0.41212479  0.68049079     0.00400
Br1366     Br  0.67514551  0.44810242  0.59813504    -0.03400
Br1367     Br  0.67896692  0.41576317  0.66673413    -0.04300
Br1368     Br  0.75247859  0.54660818  0.62512013    -0.00300
C1369       C  0.59744078  0.20255543  0.63271734     0.01100
C1370       C  0.59067277  0.21584950  0.61536258     0.03900
C1371       C  0.57639628  0.22980516  0.62083427    -0.12100
C1372       C  0.56642556  0.22863497  0.64326187     0.23200
C1373       C  0.57110868  0.21354545  0.66030326    -0.12700
C1374       C  0.58711465  0.20102081  0.65520414     0.04700
C1375       C  0.55132147  0.24370223  0.64837758     0.27100
C1376       C  0.56675212  0.27239176  0.65447531    -0.13400
C1377       C  0.55416999  0.28875934  0.65313591     0.05200
C1378       C  0.52613232  0.27652818  0.64561072    -0.09300
C1379       C  0.50960469  0.24703022  0.64274570     0.06000
C1380       C  0.52237692  0.23077664  0.64359497    -0.13700
Br1381     Br  0.55584646  0.21054114  0.69059564    -0.05800
Br1382     Br  0.59923391  0.21360364  0.58351894    -0.00200
Br1383     Br  0.57543812  0.32817118  0.66114100     0.00300
Br1384     Br  0.50102434  0.19135631  0.63583661    -0.04100
Br1385     Br  0.59585095  0.18305672  0.67924106     0.00400
Br1386     Br  0.57135611  0.25151734  0.59759656    -0.03400
Br1387     Br  0.60586768  0.28975039  0.66256672    -0.04300
Br1388     Br  0.47009411  0.22903810  0.63566117    -0.00300
C1389       C  0.67900953  0.53069479  0.19498707     0.01100
C1390       C  0.69117724  0.55685803  0.20626251     0.03900
C1391       C  0.68947010  0.55772240  0.23027815    -0.12100
C1392       C  0.67459412  0.53245787  0.24287680     0.23200
C1393       C  0.66177250  0.50634125  0.23156849    -0.12700
C1394       C  0.66445133  0.50543613  0.20773297     0.04700
C1395       C  0.67404925  0.53296195  0.26816429     0.27100
C1396       C  0.69254548  0.52766234  0.28037473    -0.13400
C1397       C  0.69084876  0.52570509  0.30432386     0.05200
C1398       C  0.67070013  0.52920869  0.31621189    -0.09300
C1399       C  0.65265204  0.53526093  0.30401128     0.06000
C1400       C  0.65429039  0.53707970  0.27995163    -0.13700
Br1401     Br  0.64024833  0.47180291  0.24885955    -0.05800
Br1402     Br  0.70819623  0.59136643  0.18877625    -0.00200
Br1403     Br  0.71544462  0.51685565  0.32041987     0.00300
Br1404     Br  0.62945505  0.54501425  0.26310546    -0.04100
Br1405     Br  0.64831016  0.46942165  0.19260543     0.00400
Br1406     Br  0.70720964  0.59337466  0.24601425    -0.03400
Br1407     Br  0.71990595  0.52251541  0.26406599    -0.04300
Br1408     Br  0.62651773  0.54215007  0.32031943    -0.00300
C1409       C  0.79918924  0.54604437  0.55832501     0.01100
C1410       C  0.77063058  0.52903033  0.55212279     0.03900
C1411       C  0.76111328  0.53394619  0.53152989    -0.12100
C1412       C  0.77987169  0.55643838  0.51729018     0.23200
C1413       C  0.80781816  0.57493836  0.52428867    -0.12700
C1414       C  0.81750967  0.56980911  0.54494029     0.04700
C1415       C  0.77060747  0.55756613  0.49384921     0.27100
C1416       C  0.77271954  0.54067290  0.47695422    -0.13400
C1417       C  0.75654910  0.53396206  0.45704209     0.05200
C1418       C  0.73935554  0.54531221  0.45341625    -0.09300
C1419       C  0.73919515  0.56427466  0.46929021     0.06000
C1420       C  0.75455268  0.57010047  0.48974481    -0.13700
Br1421     Br  0.83303615  0.60588823  0.50470613    -0.05800
Br1422     Br  0.74427906  0.49853505  0.57171075    -0.00200
Br1423     Br  0.75633879  0.50742535  0.43557228     0.00300
Br1424     Br  0.75171965  0.59307086  0.51303921    -0.04100
Br1425     Br  0.85608321  0.59406933  0.55404300     0.00400
Br1426     Br  0.72285059  0.50824941  0.52178168    -0.03400
Br1427     Br  0.79580620  0.52459189  0.48214849    -0.04300
Br1428     Br  0.71582986  0.57990252  0.46394796    -0.00300
C1429       C  0.60550389  0.47753772  0.45590323     0.01100
C1430       C  0.57666369  0.46906491  0.45551697     0.03900
C1431       C  0.56022445  0.45833512  0.47558359    -0.12100
C1432       C  0.57194251  0.45423340  0.49540982     0.23200
C1433       C  0.60098928  0.46457027  0.49630432    -0.12700
C1434       C  0.61793103  0.47754893  0.47699580     0.04700
C1435       C  0.55381319  0.43738033  0.51485058     0.27100
C1436       C  0.55458588  0.45069318  0.53557070    -0.13400
C1437       C  0.54375258  0.43462220  0.55571740     0.05200
C1438       C  0.53042357  0.40494965  0.55475090    -0.09300
C1439       C  0.52613238  0.39157614  0.53333735     0.06000
C1440       C  0.53880646  0.40775248  0.51356387    -0.13700
Br1441     Br  0.61746814  0.45943493  0.52356402    -0.05800
Br1442     Br  0.55861246  0.46994833  0.42763266    -0.00200
Br1443     Br  0.55030702  0.45386834  0.58464881     0.00300
Br1444     Br  0.53779315  0.38929136  0.48522863    -0.04100
Br1445     Br  0.65833331  0.49622506  0.48002890     0.00400
Br1446     Br  0.52144008  0.44841892  0.47603562    -0.03400
Br1447     Br  0.57254504  0.49117482  0.53643260    -0.04300
Br1448     Br  0.50280869  0.35108182  0.53106435    -0.00300
C1449       C  0.52204377  0.26505091  0.36501255     0.01100
C1450       C  0.54895524  0.28049941  0.35467153     0.03900
C1451       C  0.56252547  0.30990365  0.35260361    -0.12100
C1452       C  0.54888706  0.32383912  0.36026057     0.23200
C1453       C  0.52033973  0.30793631  0.36703261    -0.12700
C1454       C  0.50678372  0.27842657  0.36923339     0.04700
C1455       C  0.56605580  0.35436385  0.36565518     0.27100
C1456       C  0.57533560  0.36242707  0.38834772    -0.13400
C1457       C  0.59283159  0.39096951  0.39389390     0.05200
C1458       C  0.60228815  0.41170659  0.37658029    -0.09300
C1459       C  0.59351632  0.40371935  0.35377563     0.06000
C1460       C  0.57503216  0.37508172  0.34837273    -0.13700
Br1461     Br  0.50102905  0.32698059  0.37587007    -0.05800
Br1462     Br  0.56802309  0.26149420  0.34471579    -0.00200
Br1463     Br  0.60332837  0.40152214  0.42550363     0.00300
Br1464     Br  0.56278933  0.36402423  0.31727906    -0.04100
Br1465     Br  0.46848762  0.25697015  0.38023782     0.00400
Br1466     Br  0.60106725  0.33135888  0.34202981    -0.03400
Br1467     Br  0.56532476  0.33417648  0.41177173    -0.04300
Br1468     Br  0.60856190  0.43174127  0.32980186    -0.00300
C1469       C  0.80898631  0.41635112  0.37580130     0.01100
C1470       C  0.80906928  0.42525235  0.35311942     0.03900
C1471       C  0.79877365  0.44323093  0.34857748    -0.12100
C1472       C  0.78690863  0.45086325  0.36644976     0.23200
C1473       C  0.78671370  0.44180818  0.38900762    -0.12700
C1474       C  0.79848029  0.42539615  0.39378575     0.04700
C1475       C  0.77252401  0.46653553  0.36191212     0.27100
C1476       C  0.78572309  0.49527232  0.36772538    -0.13400
C1477       C  0.76953108  0.50791668  0.37039989     0.05200
C1478       C  0.74007504  0.49150968  0.36773926    -0.09300
C1479       C  0.72762351  0.46392565  0.35898568     0.06000
C1480       C  0.74374282  0.45131716  0.35636260    -0.13700
Br1481     Br  0.76923692  0.45100920  0.41340142    -0.05800
Br1482     Br  0.82097903  0.41104323  0.32813528    -0.00200
Br1483     Br  0.78738898  0.54668056  0.37996722     0.00300
Br1484     Br  0.72562682  0.41203430  0.34820265    -0.04100
Br1485     Br  0.80080486  0.41609962  0.42532588     0.00400
Br1486     Br  0.80053804  0.45724565  0.31802595    -0.03400
Br1487     Br  0.82526715  0.51603851  0.37495185    -0.04300
Br1488     Br  0.68801245  0.44287852  0.35173200    -0.00300
C1489       C  0.52426721  0.67776299  0.31422817     0.01100
C1490       C  0.50003349  0.65988826  0.30119342     0.03900
C1491       C  0.50190542  0.65830436  0.27731693    -0.12100
C1492       C  0.52727374  0.67667512  0.26581603     0.23200
C1493       C  0.55117497  0.69590522  0.27850636    -0.12700
C1494       C  0.54990729  0.69599713  0.30271075     0.04700
C1495       C  0.52776727  0.67672440  0.24032198     0.27100
C1496       C  0.53910450  0.66285647  0.22818121    -0.13400
C1497       C  0.53643201  0.66021542  0.20416602     0.05200
C1498       C  0.52320006  0.67216082  0.19218607    -0.09300
C1499       C  0.51305981  0.68714437  0.20420860     0.06000
C1500       C  0.51476702  0.68888136  0.22822865    -0.13700
Br1501     Br  0.58555789  0.72200320  0.26260307    -0.05800
Br1502     Br  0.46339759  0.63925792  0.31554343    -0.00200
Br1503     Br  0.55161645  0.64101361  0.18748403     0.00300
Br1504     Br  0.49840735  0.70715147  0.24470057    -0.04100
Br1505     Br  0.58352164  0.72042117  0.31982181     0.00400
Br1506     Br  0.46958379  0.63060944  0.26023658    -0.03400
Br1507     Br  0.55811054  0.64734770  0.24442755    -0.04300
Br1508     Br  0.49636517  0.70498262  0.18783591    -0.00300
C1509       C  0.58069664  0.65509270  0.39113763     0.01100
C1510       C  0.60174979  0.66700206  0.40808236     0.03900
C1511       C  0.62181804  0.65870706  0.40971156    -0.12100
C1512       C  0.61954467  0.63692062  0.39566690     0.23200
C1513       C  0.59850931  0.62508500  0.37878780    -0.12700
C1514       C  0.58022708  0.63514803  0.37575422     0.04700
C1515       C  0.63761377  0.62469880  0.39925709     0.27100
C1516       C  0.65851044  0.62937348  0.38296199    -0.13400
C1517       C  0.67049648  0.61238069  0.38304395     0.05200
C1518       C  0.66113925  0.59027042  0.39904140    -0.09300
C1519       C  0.64228039  0.58735075  0.41659119     0.06000
C1520       C  0.63065917  0.60461336  0.41680001    -0.13700
Br1521     Br  0.59340354  0.59360848  0.36068461    -0.05800
Br1522     Br  0.60166786  0.69262196  0.43029026    -0.00200
Br1523     Br  0.69776830  0.61757748  0.35997627     0.00300
Br1524     Br  0.60313065  0.59881757  0.43986348    -0.04100
Br1525     Br  0.55492186  0.62181155  0.34989438     0.00400
Br1526     Br  0.65201953  0.67654223  0.43148939    -0.03400
Br1527     Br  0.66846313  0.65703811  0.35909223    -0.04300
Br1528     Br  0.63123747  0.55852022  0.43965482    -0.00300
C1529       C  0.34438166  0.85648384  0.31562124     0.01100
C1530       C  0.35930277  0.84638585  0.30330512     0.03900
C1531       C  0.36136922  0.84879207  0.27929055    -0.12100
C1532       C  0.34685811  0.85937613  0.26730146     0.23200
C1533       C  0.33084091  0.86819906  0.27948289    -0.12700
C1534       C  0.33043169  0.86772051  0.30360110     0.04700
C1535       C  0.34781566  0.86032320  0.24186214     0.27100
C1536       C  0.36478081  0.88605707  0.23016679    -0.13400
C1537       C  0.36583335  0.88663048  0.20603416     0.05200
C1538       C  0.35077660  0.86135737  0.19359716    -0.09300
C1539       C  0.33453748  0.83557351  0.20535877     0.06000
C1540       C  0.33233574  0.83516722  0.22935712    -0.13700
Br1541     Br  0.30909633  0.88051318  0.26305845    -0.05800
Br1542     Br  0.37563951  0.82773218  0.31906997    -0.00200
Br1543     Br  0.38709959  0.92205176  0.18995958     0.00300
Br1544     Br  0.30780679  0.80013220  0.24517284    -0.04100
Br1545     Br  0.31234316  0.88426501  0.32001983     0.00400
Br1546     Br  0.38431470  0.83780737  0.26271097    -0.03400
Br1547     Br  0.38666028  0.92044410  0.24723067    -0.04300
Br1548     Br  0.31676152  0.80049925  0.18879885    -0.00300
C1549       C  0.35476873  0.93493365  0.39118335     0.01100
C1550       C  0.37131437  0.95500989  0.37418069     0.03900
C1551       C  0.38102167  0.98375682  0.37744250    -0.12100
C1552       C  0.37417928  0.99285579  0.39766222     0.23200
C1553       C  0.35555950  0.97259229  0.41370371    -0.12700
C1554       C  0.34580672  0.94367619  0.41045533     0.04700
C1555       C  0.38913889  0.02377157  0.40262442     0.27100
C1556       C  0.41453769  0.03639002  0.41493887    -0.13400
C1557       C  0.43270588  0.06588901  0.41474014     0.05200
C1558       C  0.42590693  0.08317272  0.40191032    -0.09300
C1559       C  0.39911814  0.07071954  0.39161794     0.06000
C1560       C  0.38074194  0.04111340  0.39213702    -0.13700
Br1561     Br  0.34438652  0.98473178  0.44047514    -0.05800
Br1562     Br  0.38082946  0.94317466  0.34620119    -0.00200
Br1563     Br  0.46741721  0.08246029  0.43170525     0.00300
Br1564     Br  0.34473023  0.02391393  0.37726044    -0.04100
Br1565     Br  0.32162025  0.91634213  0.43304891     0.00400
Br1566     Br  0.40501313  0.01105790  0.35461653    -0.03400
Br1567     Br  0.42538128  0.01298168  0.43077826    -0.04300
Br1568     Br  0.38860036  0.09369282  0.37483737    -0.00300
C1569       C  0.48172033  0.73947110  0.38302548     0.01100
C1570       C  0.47391748  0.74935655  0.40222083     0.03900
C1571       C  0.46277420  0.76665150  0.39922779    -0.12100
C1572       C  0.45967040  0.77446512  0.37701568     0.23200
C1573       C  0.46896546  0.76599925  0.35783557    -0.12700
C1574       C  0.47977446  0.74820399  0.36081766     0.04700
C1575       C  0.44347005  0.78856233  0.37419018     0.27100
C1576       C  0.41402216  0.77184326  0.37238750    -0.13400
C1577       C  0.39752215  0.78401834  0.37526670     0.05200
C1578       C  0.41052640  0.81330528  0.37918525    -0.09300
C1579       C  0.44028092  0.83039848  0.37898868     0.06000
C1580       C  0.45665256  0.81788362  0.37691676    -0.13700
Br1581     Br  0.46550286  0.77776209  0.32761307    -0.05800
Br1582     Br  0.47744115  0.73838825  0.43279978    -0.00200
Br1583     Br  0.35700278  0.76002271  0.37445210     0.00300
Br1584     Br  0.49707464  0.84036939  0.37963442    -0.04100
Br1585     Br  0.48972849  0.73399261  0.33459878     0.00400
Br1586     Br  0.45000911  0.77817821  0.42556843    -0.03400
Br1587     Br  0.39630272  0.73176229  0.36748632    -0.04300
Br1588     Br  0.45903416  0.87057768  0.38368542    -0.00300
C1589       C  0.14945898  0.48946186  0.19094415     0.01100
C1590       C  0.17463564  0.49789164  0.20301552     0.03900
C1591       C  0.17423216  0.49511026  0.22696880    -0.12100
C1592       C  0.14900828  0.48520241  0.23931270     0.23200
C1593       C  0.12398029  0.47759019  0.22753049    -0.12700
C1594       C  0.12406956  0.47919532  0.20337471     0.04700
C1595       C  0.14957299  0.48456363  0.26477569     0.27100
C1596       C  0.14258728  0.45958953  0.27659262    -0.13400
C1597       C  0.14469029  0.45966997  0.30070290     0.05200
C1598       C  0.15427537  0.48493891  0.31302419    -0.09300
C1599       C  0.16276641  0.51016621  0.30089490     0.06000
C1600       C  0.15960568  0.50979493  0.27701715    -0.13700
Br1601     Br  0.08968198  0.46512345  0.24462363    -0.05800
Br1602     Br  0.21031153  0.51475017  0.18710772    -0.00200
Br1603     Br  0.13393058  0.42504299  0.31663092     0.00300
Br1604     Br  0.16922091  0.54403218  0.26088563    -0.04100
Br1605     Br  0.08910064  0.46571547  0.18750068     0.00400
Br1606     Br  0.20838772  0.50496230  0.24312501    -0.03400
Br1607     Br  0.13034265  0.42540403  0.25958376    -0.04300
Br1608     Br  0.18109151  0.54588903  0.31659801    -0.00300
C1609       C  0.92523188  0.35565558  0.39655082     0.01100
C1610       C  0.94382927  0.37779564  0.41112943     0.03900
C1611       C  0.97264724  0.38716747  0.41106154    -0.12100
C1612       C  0.98287377  0.37350226  0.39731178     0.23200
C1613       C  0.96373937  0.34894231  0.38524687    -0.12700
C1614       C  0.93493850  0.34010675  0.38467724     0.04700
C1615       C  0.01370203  0.38739497  0.39319224     0.27100
C1616       C  0.02529633  0.40334796  0.37298747    -0.13400
C1617       C  0.05455308  0.42130317  0.37079800     0.05200
C1618       C  0.07244473  0.42344494  0.38873322    -0.09300
C1619       C  0.06113732  0.40587181  0.40811523     0.06000
C1620       C  0.03173062  0.38778241  0.41033226    -0.13700
Br1621     Br  0.97753779  0.32882839  0.36811362    -0.05800
Br1622     Br  0.92983232  0.39539974  0.43132620    -0.00200
Br1623     Br  0.07018869  0.44399170  0.34345675     0.00300
Br1624     Br  0.01592196  0.36484553  0.43740512    -0.04100
Br1625     Br  0.90960534  0.30816915  0.36614714     0.00400
Br1626     Br  0.99838306  0.42031752  0.42834003    -0.03400
Br1627     Br  0.00106624  0.40219600  0.34883873    -0.04300
Br1628     Br  0.08573592  0.40833717  0.43233562    -0.00300
C1629       C  0.27393020  0.74812879  0.38111024     0.01100
C1630       C  0.26967028  0.73875450  0.35817732     0.03900
C1631       C  0.25363989  0.70957278  0.35334225    -0.12100
C1632       C  0.24251850  0.68977017  0.37142081     0.23200
C1633       C  0.24547862  0.69930300  0.39418687    -0.12700
C1634       C  0.26090566  0.72827302  0.39897392     0.04700
C1635       C  0.22914730  0.65893003  0.36723254     0.27100
C1636       C  0.19963650  0.64143669  0.36677475    -0.13400
C1637       C  0.18681788  0.61199143  0.36920848     0.05200
C1638       C  0.20361516  0.59985315  0.37190907    -0.09300
C1639       C  0.23315651  0.61723052  0.36972505     0.06000
C1640       C  0.24584502  0.64665041  0.36752072    -0.13700
Br1641     Br  0.22891185  0.67249283  0.41902027    -0.05800
Br1642     Br  0.28731270  0.76564451  0.33360721    -0.00200
Br1643     Br  0.14628925  0.58904845  0.37095812     0.00300
Br1644     Br  0.28628170  0.67045548  0.36611722    -0.04100
Br1645     Br  0.26424576  0.74082306  0.43026634     0.00400
Br1646     Br  0.24697258  0.69651569  0.32213089    -0.03400
Br1647     Br  0.17694251  0.65826428  0.36418353    -0.04300
Br1648     Br  0.25637673  0.60078258  0.36968579    -0.00300
C1649       C  0.40546486  0.60128590  0.36919121     0.01100
C1650       C  0.38700626  0.61160861  0.37013930     0.03900
C1651       C  0.35779831  0.59281726  0.36943349    -0.12100
C1652       C  0.34687363  0.56369262  0.36743219     0.23200
C1653       C  0.36514912  0.55357109  0.36419148    -0.12700
C1654       C  0.39448912  0.57238037  0.36471494     0.04700
C1655       C  0.31637037  0.54402672  0.37114992     0.27100
C1656       C  0.30610544  0.53655817  0.39375039    -0.13400
C1657       C  0.27722363  0.52396807  0.39816510     0.05200
C1658       C  0.25855488  0.51847380  0.37995658    -0.09300
C1659       C  0.26838434  0.52317603  0.35718662     0.06000
C1660       C  0.29742344  0.53610947  0.35276541    -0.13700
Br1661     Br  0.34976301  0.51365501  0.36094696    -0.05800
Br1662     Br  0.40158679  0.65154544  0.37276753    -0.00200
Br1663     Br  0.26332844  0.51544493  0.42930814     0.00300
Br1664     Br  0.31154412  0.54460351  0.32179876    -0.04100
Br1665     Br  0.41909006  0.55778456  0.36110399     0.00400
Br1666     Br  0.33253595  0.60669290  0.37302621    -0.03400
Br1667     Br  0.33181350  0.54526941  0.41881597    -0.04300
Br1668     Br  0.24225862  0.51376906  0.33237452    -0.00300
C1669       C  0.52352311  0.86082766  0.69451427     0.01100
C1670       C  0.54841319  0.86388083  0.70384746     0.03900
C1671       C  0.55240570  0.86577722  0.72773292    -0.12100
C1672       C  0.53180094  0.86493126  0.74235351     0.23200
C1673       C  0.50737100  0.86259831  0.73322657    -0.12700
C1674       C  0.50333056  0.86098049  0.70942323     0.04700
C1675       C  0.53519297  0.86586648  0.76749688     0.27100
C1676       C  0.52604692  0.84067838  0.77966365    -0.13400
C1677       C  0.52635627  0.84088083  0.80370398     0.05200
C1678       C  0.53499656  0.86614501  0.81563531    -0.09300
C1679       C  0.54454875  0.89144596  0.80345853     0.06000
C1680       C  0.54485646  0.89133744  0.77937165    -0.13700
Br1681     Br  0.47910834  0.86104037  0.75370763    -0.05800
Br1682     Br  0.57830581  0.86788317  0.68414435    -0.00200
Br1683     Br  0.51325963  0.80610223  0.82013517     0.00300
Br1684     Br  0.55727180  0.92573949  0.76252167    -0.04100
Br1685     Br  0.46967076  0.85877891  0.69800187     0.00400
Br1686     Br  0.58611716  0.86965711  0.74064059    -0.03400
Br1687     Br  0.51130005  0.80560162  0.76331495    -0.04300
Br1688     Br  0.55726256  0.92619847  0.81978336    -0.00300
C1689       C  0.65502051  0.08304684  0.60984764     0.01100
C1690       C  0.66721892  0.07214337  0.62449310     0.03900
C1691       C  0.65745755  0.04304122  0.62440056    -0.12100
C1692       C  0.63490243  0.02454206  0.61011731     0.23200
C1693       C  0.62432937  0.03582904  0.59417541    -0.12700
C1694       C  0.63431252  0.06491032  0.59407732     0.04700
C1695       C  0.61894928  0.99344553  0.61443114     0.27100
C1696       C  0.61930905  0.97445900  0.59847974    -0.13400
C1697       C  0.59896350  0.94533269  0.59994325     0.05200
C1698       C  0.57953547  0.93494216  0.61826807    -0.09300
C1699       C  0.58174556  0.95350699  0.63577418     0.06000
C1700       C  0.60057429  0.98265474  0.63348836    -0.13700
Br1701     Br  0.59455200  0.01114638  0.57354697    -0.05800
Br1702     Br  0.69489632  0.09646648  0.64659309    -0.00200
Br1703     Br  0.59609947  0.92011371  0.57600340     0.00300
Br1704     Br  0.59949060  0.00782076  0.65577630    -0.04100
Br1705     Br  0.61852193  0.07972801  0.57299776     0.00400
Br1706     Br  0.67349618  0.02806598  0.64501459    -0.03400
Br1707     Br  0.64711268  0.98857192  0.57434773    -0.04300
Br1708     Br  0.55863370  0.93894970  0.66302684    -0.00300
C1709       C  0.53362076  0.73081359  0.45825915     0.01100
C1710       C  0.51845626  0.71944773  0.47903030     0.03900
C1711       C  0.51955524  0.73725550  0.49677900    -0.12100
C1712       C  0.53608318  0.76676947  0.49435685     0.23200
C1713       C  0.55237252  0.77826146  0.47425077    -0.12700
C1714       C  0.55129196  0.76045927  0.45634386     0.04700
C1715       C  0.53572764  0.78536308  0.51292844     0.27100
C1716       C  0.51809957  0.79653596  0.51119856    -0.13400
C1717       C  0.51510602  0.81101890  0.52985595     0.05200
C1718       C  0.52878827  0.81357989  0.55094248    -0.09300
C1719       C  0.54772033  0.80375358  0.55215037     0.06000
C1720       C  0.55136536  0.79008842  0.53314247    -0.13700
Br1721     Br  0.57505067  0.81861606  0.47088234    -0.05800
Br1722     Br  0.49531175  0.67912835  0.48324383    -0.00200
Br1723     Br  0.49211497  0.82746499  0.52631179     0.00300
Br1724     Br  0.57683330  0.77639985  0.53501127    -0.04100
Br1725     Br  0.57233637  0.77715225  0.42853623     0.00400
Br1726     Br  0.49703626  0.72112789  0.52411580    -0.03400
Br1727     Br  0.49674669  0.79064808  0.48362201    -0.04300
Br1728     Br  0.56675118  0.80619477  0.58038177    -0.00300
C1729       C  0.45857374  0.87965828  0.56322784     0.01100
C1730       C  0.47775515  0.90568438  0.55287467     0.03900
C1731       C  0.47050904  0.91338434  0.53221102    -0.12100
C1732       C  0.44433168  0.89487070  0.52204561     0.23200
C1733       C  0.42416170  0.87037814  0.53380395    -0.12700
C1734       C  0.43111914  0.86321214  0.55466820     0.04700
C1735       C  0.43971091  0.89723947  0.49748140     0.27100
C1736       C  0.42543628  0.91064679  0.49020537    -0.13400
C1737       C  0.41322287  0.90484821  0.46827811     0.05200
C1738       C  0.41464366  0.88500862  0.45424519    -0.09300
C1739       C  0.43120328  0.87380842  0.46074355     0.06000
C1740       C  0.44439118  0.88058230  0.48208390    -0.13700
Br1741     Br  0.38827264  0.84466651  0.51991674    -0.05800
Br1742     Br  0.51447829  0.92954138  0.56596163    -0.00200
Br1743     Br  0.39259979  0.92199715  0.45818808     0.00300
Br1744     Br  0.46621432  0.86435748  0.49136631    -0.04100
Br1745     Br  0.40329300  0.83044076  0.57139877     0.00400
Br1746     Br  0.49707390  0.94779064  0.51671925    -0.03400
Br1747     Br  0.42082392  0.93494076  0.51092249    -0.04300
Br1748     Br  0.43341841  0.84676704  0.44149992    -0.00300
C1749       C  0.14539726  0.66826277  0.69293898     0.01100
C1750       C  0.15543086  0.69476141  0.70403376     0.03900
C1751       C  0.15555473  0.69633261  0.72810499    -0.12100
C1752       C  0.14420756  0.67178466  0.74138991     0.23200
C1753       C  0.13203556  0.64538367  0.73083680    -0.12700
C1754       C  0.13323229  0.64341769  0.70686063     0.04700
C1755       C  0.14757441  0.67387747  0.76654860     0.27100
C1756       C  0.17162373  0.67570700  0.77619771    -0.13400
C1757       C  0.17524351  0.67774911  0.80002257     0.05200
C1758       C  0.15415885  0.67647740  0.81428005    -0.09300
C1759       C  0.13037391  0.67528050  0.80468154     0.06000
C1760       C  0.12716081  0.67417087  0.78074208    -0.13700
Br1761     Br  0.11433525  0.61187561  0.74980096    -0.05800
Br1762     Br  0.16855943  0.72968696  0.68747415    -0.00200
Br1763     Br  0.20963980  0.68365523  0.81317203     0.00300
Br1764     Br  0.09467391  0.67242534  0.76733253    -0.04100
Br1765     Br  0.11895309  0.60595877  0.69461149     0.00400
Br1766     Br  0.17203070  0.73235619  0.74338464    -0.03400
Br1767     Br  0.19919430  0.67463151  0.75670319    -0.04300
Br1768     Br  0.10214774  0.67478686  0.82435204    -0.00300
C1769       C  0.07338293  0.65186168  0.61558246     0.01100
C1770       C  0.05318766  0.63246739  0.63128835     0.03900
C1771       C  0.02473679  0.62410580  0.62924889    -0.12100
C1772       C  0.01633705  0.63650236  0.61249891     0.23200
C1773       C  0.03693363  0.65825782  0.59849355    -0.12700
C1774       C  0.06536698  0.66555045  0.59967235     0.04700
C1775       C  0.98565355  0.62507475  0.60923908     0.27100
C1776       C  0.97093812  0.60441098  0.59236584    -0.13400
C1777       C  0.94137127  0.58745899  0.59338053     0.05200
C1778       C  0.92638905  0.59060496  0.61153513    -0.09300
C1779       C  0.94088938  0.61272284  0.62732250     0.06000
C1780       C  0.97039016  0.63051145  0.62568512    -0.13700
Br1781     Br  0.02599248  0.67793513  0.57789634    -0.05800
Br1782     Br  0.06467220  0.61841560  0.65664477    -0.00200
Br1783     Br  0.92138745  0.55850044  0.57076948     0.00300
Br1784     Br  0.99037303  0.66102660  0.64699735    -0.04100
Br1785     Br  0.09288695  0.69332139  0.57895174     0.00400
Br1786     Br  0.99706791  0.59479666  0.64908241    -0.03400
Br1787     Br  0.99141825  0.59768789  0.56899039    -0.04300
Br1788     Br  0.92090534  0.61623591  0.65293761    -0.00300
C1789       C  0.13190721  0.59555941  0.55547916     0.01100
C1790       C  0.13910719  0.57509935  0.55155166     0.03900
C1791       C  0.13330907  0.56142170  0.53032171    -0.12100
C1792       C  0.12041244  0.56834356  0.51291707     0.23200
C1793       C  0.11113727  0.58714116  0.51750510    -0.12700
C1794       C  0.11694167  0.60080176  0.53884586     0.04700
C1795       C  0.12180762  0.55993859  0.48912371     0.27100
C1796       C  0.14484472  0.57882777  0.47531584    -0.13400
C1797       C  0.15111378  0.56918180  0.45533400     0.05200
C1798       C  0.13450577  0.54066368  0.44910015    -0.09300
C1799       C  0.11014494  0.52222466  0.46180508     0.06000
C1800       C  0.10358773  0.53202292  0.48175612    -0.13700
Br1801     Br  0.09275084  0.59586025  0.49386618    -0.05800
Br1802     Br  0.15912898  0.56756358  0.57451547    -0.00200
Br1803     Br  0.18355084  0.59479973  0.43707395     0.00300
Br1804     Br  0.07081619  0.50707678  0.49984491    -0.04100
Br1805     Br  0.10608298  0.62799187  0.54494180     0.00400
Br1806     Br  0.14561189  0.53524187  0.52434368    -0.03400
Br1807     Br  0.16927498  0.61749566  0.48464252    -0.04300
Br1808     Br  0.08738920  0.48323384  0.45302200    -0.00300
C1809       C  0.19857656  0.73013569  0.55208595     0.01100
C1810       C  0.20591570  0.72131478  0.53178391     0.03900
C1811       C  0.22022007  0.74051454  0.51384719    -0.12100
C1812       C  0.22523055  0.76807508  0.51484927     0.23200
C1813       C  0.21564351  0.77623801  0.53402672    -0.12700
C1814       C  0.20350894  0.75785782  0.55301593     0.04700
C1815       C  0.24200547  0.78841076  0.49611900     0.27100
C1816       C  0.27113464  0.80724364  0.49893609    -0.13400
C1817       C  0.28835483  0.82141008  0.47980689     0.05200
C1818       C  0.27683972  0.81593910  0.45751062    -0.09300
C1819       C  0.24733380  0.79862519  0.45497462     0.06000
C1820       C  0.22997040  0.78561892  0.47434228    -0.13700
Br1821     Br  0.21965244  0.81283820  0.53428058    -0.05800
Br1822     Br  0.19639209  0.68274138  0.52791106    -0.00200
Br1823     Br  0.32815631  0.84737463  0.48406853     0.00300
Br1824     Br  0.18974161  0.76190020  0.47100251    -0.04100
Br1825     Br  0.19679877  0.77219987  0.58090238     0.00400
Br1826     Br  0.23442918  0.72937180  0.48828399    -0.03400
Br1827     Br  0.28788966  0.81161538  0.52870727    -0.04300
Br1828     Br  0.23080304  0.78915008  0.42487750    -0.00300
C1829       C  0.40357724  0.81257874  0.64439939     0.01100
C1830       C  0.38706754  0.78347662  0.64921160     0.03900
C1831       C  0.35794573  0.77070036  0.65260816    -0.12100
C1832       C  0.34520254  0.78681758  0.65057805     0.23200
C1833       C  0.36196852  0.81629612  0.64851662    -0.12700
C1834       C  0.39122579  0.82925078  0.64531766     0.04700
C1835       C  0.31511890  0.77215144  0.64433808     0.27100
C1836       C  0.30792747  0.76407835  0.62132300    -0.13400
C1837       C  0.27971039  0.74659934  0.61518628     0.05200
C1838       C  0.25844779  0.73686300  0.63205154    -0.09300
C1839       C  0.26541549  0.74630915  0.65485703     0.06000
C1840       C  0.29386810  0.76397947  0.66102101    -0.13700
Br1841     Br  0.34430693  0.83831943  0.64768199    -0.05800
Br1842     Br  0.40376832  0.76052877  0.64919850    -0.00200
Br1843     Br  0.27028365  0.73590743  0.58348609     0.00300
Br1844     Br  0.30400892  0.77606054  0.69227619    -0.04100
Br1845     Br  0.41341429  0.86906803  0.63873867     0.00400
Br1846     Br  0.33480026  0.73049165  0.65726474    -0.03400
Br1847     Br  0.33697455  0.77574802  0.59826601    -0.04300
Br1848     Br  0.23632974  0.73377484  0.67780528    -0.00300
C1849       C  0.33202962  0.48821239  0.68961095     0.01100
C1850       C  0.34359522  0.51414825  0.70122312     0.03900
C1851       C  0.34604709  0.51501977  0.72522314    -0.12100
C1852       C  0.33561001  0.48980222  0.73778224     0.23200
C1853       C  0.32332322  0.46382702  0.72618774    -0.12700
C1854       C  0.32235607  0.46313341  0.70210766     0.04700
C1855       C  0.33642825  0.49046296  0.76320744     0.27100
C1856       C  0.35664258  0.48732124  0.77510248    -0.13400
C1857       C  0.35684642  0.48741941  0.79924463     0.05200
C1858       C  0.33721267  0.49127502  0.81160153    -0.09300
C1859       C  0.31704259  0.49447431  0.79956782     0.06000
C1860       C  0.31653220  0.49382698  0.77548750    -0.13700
Br1861     Br  0.30760786  0.42918569  0.74336119    -0.05800
Br1862     Br  0.35548829  0.54844444  0.68426592    -0.00200
Br1863     Br  0.38313232  0.48083267  0.81536881     0.00300
Br1864     Br  0.28851141  0.49757371  0.75911937    -0.04100
Br1865     Br  0.30976977  0.42818216  0.68617449     0.00400
Br1866     Br  0.36398626  0.55075744  0.74092350    -0.03400
Br1867     Br  0.38409612  0.48298851  0.75824709    -0.04300
Br1868     Br  0.29075056  0.50112445  0.81568932    -0.00300
C1869       C  0.34886623  0.42215162  0.61795732     0.01100
C1870       C  0.37019299  0.42453983  0.63262421     0.03900
C1871       C  0.38045884  0.40629730  0.63027613    -0.12100
C1872       C  0.36768442  0.38349252  0.61491576     0.23200
C1873       C  0.34439093  0.37916213  0.60191646    -0.12700
C1874       C  0.33527747  0.39870239  0.60311187     0.04700
C1875       C  0.38006830  0.36532422  0.61220325     0.27100
C1876       C  0.39868045  0.37024404  0.59380604    -0.13400
C1877       C  0.41662075  0.35938371  0.59455715     0.05200
C1878       C  0.41668734  0.34428182  0.61394134    -0.09300
C1879       C  0.39609529  0.33681687  0.63113499     0.06000
C1880       C  0.37761520  0.34707643  0.63015436    -0.13700
Br1881     Br  0.32570520  0.34696183  0.58197368    -0.05800
Br1882     Br  0.38464243  0.45197383  0.65706018    -0.00200
Br1883     Br  0.44228052  0.36627816  0.56954686     0.00300
Br1884     Br  0.35097805  0.33872040  0.65466103    -0.04100
Br1885     Br  0.30508939  0.39378818  0.58374261     0.00400
Br1886     Br  0.41352116  0.41387081  0.64714011    -0.03400
Br1887     Br  0.40186064  0.39439724  0.56875265    -0.04300
Br1888     Br  0.39532736  0.31514836  0.65723850    -0.00300
C1889       C  0.27280515  0.45763549  0.54606085     0.01100
C1890       C  0.28447695  0.46777524  0.52401295     0.03900
C1891       C  0.26691604  0.46380342  0.50524439    -0.12100
C1892       C  0.23742398  0.44867853  0.50806967     0.23200
C1893       C  0.22571643  0.43503453  0.52913410    -0.12700
C1894       C  0.24323191  0.43975079  0.54818609     0.04700
C1895       C  0.21919780  0.45059826  0.49024365     0.27100
C1896       C  0.20935153  0.46916891  0.49367755    -0.13400
C1897       C  0.19407214  0.47307560  0.47644317     0.05200
C1898       C  0.19060188  0.46048113  0.45469823    -0.09300
C1899       C  0.19949668  0.44098471  0.45153271     0.06000
C1900       C  0.21292439  0.43544149  0.46952869    -0.13700
Br1901     Br  0.18538253  0.41139591  0.53207608    -0.05800
Br1902     Br  0.32475834  0.48771502  0.51950007    -0.00200
Br1903     Br  0.17794736  0.49595965  0.48275563     0.00300
Br1904     Br  0.22393823  0.40802785  0.46553624    -0.04100
Br1905     Br  0.22604570  0.42382969  0.57746090     0.00400
Br1906     Br  0.28344256  0.48094822  0.47606737    -0.03400
Br1907     Br  0.21879222  0.49120752  0.52136720    -0.04300
Br1908     Br  0.19622973  0.42397651  0.42198465    -0.00300
C1909       C  0.41041155  0.53574111  0.55374435     0.01100
C1910       C  0.42833025  0.56448597  0.54873887     0.03900
C1911       C  0.44227478  0.57271171  0.52757129    -0.12100
C1912       C  0.43851717  0.55208618  0.51151561     0.23200
C1913       C  0.42300777  0.52333158  0.51756376    -0.12700
C1914       C  0.40889117  0.51512932  0.53881265     0.04700
C1915       C  0.44657763  0.56082032  0.48743293     0.27100
C1916       C  0.42620060  0.55984434  0.47254453    -0.13400
C1917       C  0.43465421  0.57470751  0.45180218     0.05200
C1918       C  0.46342169  0.59158833  0.44650247    -0.09300
C1919       C  0.48360287  0.59068110  0.46026447     0.06000
C1920       C  0.47506704  0.57477037  0.48062886    -0.13700
Br1921     Br  0.41905770  0.49537232  0.49586786    -0.05800
Br1922     Br  0.43191245  0.59256607  0.57026063    -0.00200
Br1923     Br  0.40705535  0.57332170  0.43108959     0.00300
Br1924     Br  0.50240865  0.57399428  0.50023108    -0.04100
Br1925     Br  0.38599634  0.47585647  0.54693116     0.00400
Br1926     Br  0.46384916  0.61220895  0.51964654    -0.03400
Br1927     Br  0.38709660  0.54095206  0.48164710    -0.04300
Br1928     Br  0.52288719  0.61291953  0.45201013    -0.00300
C1929       C  0.39657305  0.59915892  0.63044715     0.01100
C1930       C  0.42561520  0.61361060  0.63572906     0.03900
C1931       C  0.44026967  0.64283070  0.63988213    -0.12100
C1932       C  0.42643223  0.65791351  0.63778347     0.23200
C1933       C  0.39713057  0.64326412  0.63442826    -0.12700
C1934       C  0.38207943  0.61384010  0.63170875     0.04700
C1935       C  0.44316555  0.68909561  0.63561110     0.27100
C1936       C  0.44626520  0.70669082  0.65421491    -0.13400
C1937       C  0.46047507  0.73617022  0.65107824     0.05200
C1938       C  0.47148901  0.74795722  0.62934848    -0.09300
C1939       C  0.46952572  0.73038838  0.61115655     0.06000
C1940       C  0.45538614  0.70109533  0.61422442    -0.13700
Br1941     Br  0.37793323  0.66376834  0.63181755    -0.05800
Br1942     Br  0.44632398  0.59449529  0.63555656    -0.00200
Br1943     Br  0.46448345  0.76040952  0.67625855     0.00300
Br1944     Br  0.45157163  0.67719448  0.58870936    -0.04100
Br1945     Br  0.34145606  0.59370304  0.63055529     0.00400
Br1946     Br  0.47985462  0.66288726  0.64698975    -0.03400
Br1947     Br  0.43031192  0.69021189  0.68363644    -0.04300
Br1948     Br  0.48530536  0.74643781  0.58160724    -0.00300
C1949       C  0.26362946  0.52165686  0.62036319     0.01100
C1950       C  0.25621136  0.53405836  0.60272942     0.03900
C1951       C  0.24134184  0.54754840  0.60787183    -0.12100
C1952       C  0.23308764  0.54827513  0.63058590     0.23200
C1953       C  0.23918931  0.53475125  0.64807499    -0.12700
C1954       C  0.25433904  0.52135613  0.64299785     0.04700
C1955       C  0.21899342  0.56431159  0.63583127     0.27100
C1956       C  0.23539081  0.59341926  0.64027849    -0.13400
C1957       C  0.22268910  0.60970445  0.64104648     0.05200
C1958       C  0.19356444  0.59711993  0.63701775    -0.09300
C1959       C  0.17672100  0.56748834  0.63529368     0.06000
C1960       C  0.18952268  0.55122768  0.63411119    -0.13700
Br1961     Br  0.22793648  0.53594155  0.67912943    -0.05800
Br1962     Br  0.26614819  0.53241813  0.57119900    -0.00200
Br1963     Br  0.24523235  0.64950396  0.64744422     0.00300
Br1964     Br  0.16713998  0.51141060  0.62792755    -0.04100
Br1965     Br  0.26375388  0.50422456  0.66730086     0.00400
Br1966     Br  0.23334776  0.56629479  0.58386838    -0.03400
Br1967     Br  0.27564812  0.61134215  0.64331355    -0.04300
Br1968     Br  0.13635745  0.54918099  0.63316234    -0.00300
loop_ 
_geom_bond_atom_site_label_1 
_geom_bond_atom_site_label_2 
_geom_bond_distance 
_geom_bond_site_symmetry_2 
_ccdc_geom_bond_type 
Fe1          O17   2.048       .  S
Fe1           O7   2.059       .  S
Fe1          O14   2.062       .  S
Fe1           O6   2.038       .  S
Fe1          O12   1.967       .  S
Fe2           O5   2.051       .  S
Fe2           O9   2.066       .  S
Fe2          O13   2.066       .  S
Fe2          O18   2.044       .  S
Fe2          O12   1.978       .  S
Fe3          O21   2.106       .  S
Fe3           O8   2.081       .  S
Fe3          O15   2.095       .  S
Fe3           O4   2.105       .  S
Fe3          O12   1.987       .  S
O4           C11   1.276       .  A
O5           C19   1.268       .  A
O6           C11   1.265       .  A
O7           C10   1.268       .  A
O8           C20   1.272       .  A
O9           C22   1.267       .  A
C10          O15   1.274       .  A
C10        C1889   1.497       .  S
C11        C1949   1.488       .  S
O13          C16   1.265       .  A
O14          C16   1.266       .  A
C16        C1929   1.488       .  S
O17          C22   1.267       .  A
O18          C20   1.264       .  A
C19          O21   1.276       .  A
C19        C1869   1.495       .  S
C20        C1849   1.472       .  S
C22        C1909   1.462       .  S
Fe23         O39   2.053       .  S
Fe23         O29   2.061       .  S
Fe23         O36   2.057       .  S
Fe23         O28   2.045       .  S
Fe23         O34   1.952       .  S
Fe24         O27   2.059       .  S
Fe24         O31   2.081       .  S
Fe24         O35   2.086       .  S
Fe24         O40   2.069       .  S
Fe24         O34   1.966       .  S
Fe25         O43   2.089       .  S
Fe25         O30   2.064       .  S
Fe25         O37   2.086       .  S
Fe25         O26   2.089       .  S
Fe25         O34   1.970       .  S
O26          C33   1.272       .  A
O27          C41   1.268       .  A
O28          C33   1.267       .  A
O29          C32   1.266       .  A
O30          C42   1.268       .  A
O31          C44   1.273       .  A
C32          O37   1.272       .  A
C32        C1809   1.496       .  S
C33        C1838   1.471       .  S
O35          C38   1.269       .  A
O36          C38   1.265       .  A
C38        C1958   1.488       .  S
O39          C44   1.270       .  A
O40          C42   1.271       .  A
C41          O43   1.271       .  A
C41        C1769   1.487       .  S
C42        C1749   1.506       .  S
C44        C1789   1.467       .  S
Fe45         O61   2.051       .  S
Fe45         O51   2.067       .  S
Fe45         O58   2.059       .  S
Fe45         O50   2.046       .  S
Fe45         O56   1.957       .  S
Fe46         O49   2.045       .  S
Fe46         O53   2.069       .  S
Fe46         O57   2.063       .  S
Fe46         O62   2.053       .  S
Fe46         O56   1.971       .  S
Fe47         O65   2.106       .  S
Fe47         O52   2.077       .  S
Fe47         O59   2.097       .  S
Fe47         O48   2.099       .  S
Fe47         O56   1.971       .  S
O48          C55   1.275       .  A
O49          C63   1.267       .  A
O50          C55   1.266       .  A
O51          C54   1.269       .  A
O52          C64   1.272       .  A
O53          C66   1.267       .  A
C54          O59   1.275       .  A
C54        C1718   1.503       .  S
C55        C1938   1.475       .  S
O57          C60   1.266       .  A
O58          C60   1.266       .  A
C60        C1829   1.474       .  S
O61          C66   1.269       .  A
O62          C64   1.265       .  A
C63          O65   1.277       .  A
C63        C1698   1.483       .  S
C64        C1669   1.485       .  S
C66        C1729   1.467       .  S
Fe67         O83   2.048       .  S
Fe67         O73   2.061       .  S
Fe67         O80   2.073       .  S
Fe67         O72   2.040       .  S
Fe67         O78   1.959       .  S
Fe68         O71   2.044       .  S
Fe68         O75   2.077       .  S
Fe68         O79   2.064       .  S
Fe68         O84   2.062       .  S
Fe68         O78   1.969       .  S
Fe69         O87   2.088       .  S
Fe69         O74   2.080       .  S
Fe69         O81   2.087       .  S
Fe69         O70   2.084       .  S
Fe69         O78   1.980       .  S
O70          C77   1.272       .  A
O71          C85   1.265       .  A
O72          C77   1.267       .  A
O73          C76   1.268       .  A
O74          C86   1.273       .  A
O75          C88   1.271       .  A
C76          O81   1.273       .  A
C76        C1898   1.493       .  S
C77        C1658   1.466       .  S
O79          C82   1.265       .  A
O80          C82   1.268       .  A
C82        C1638   1.491       .  S
O83          C88   1.268       .  A
O84          C86   1.270       .  A
C85          O87   1.272       .  A
C85        C1618   1.475       .  S
C86        C1598   1.485       .  S
C88        C1798   1.466       .  S
Fe89        O105   2.047       .  S
Fe89         O95   2.050       .  S
Fe89        O102   2.050       .  S
Fe89         O94   2.050       .  S
Fe89        O100   1.971       .  S
Fe90         O93   2.056       .  S
Fe90         O97   2.071       .  S
Fe90        O101   2.068       .  S
Fe90        O106   2.053       .  S
Fe90        O100   1.985       .  S
Fe91        O109   2.103       .  S
Fe91         O96   2.077       .  S
Fe91        O103   2.095       .  S
Fe91         O92   2.100       .  S
Fe91        O100   1.987       .  S
O92          C99   1.275       .  A
O93         C107   1.268       .  A
O94          C99   1.268       .  A
O95          C98   1.265       .  A
O96         C108   1.272       .  A
O97         C110   1.269       .  A
C98         O103   1.273       .  A
C98        C1818   1.491       .  S
C99        C1629   1.485       .  S
O101        C104   1.266       .  A
O102        C104   1.264       .  A
C104       C1578   1.482       .  S
O105        C110   1.268       .  A
O106        C108   1.267       .  A
C107        O109   1.276       .  A
C107       C1549   1.492       .  S
C108       C1529   1.480       .  S
C110       C1738   1.464       .  S
Fe111       O127   2.048       .  S
Fe111       O117   2.046       .  S
Fe111       O124   2.052       .  S
Fe111       O116   2.043       .  S
Fe111       O122   1.953       .  S
Fe112       O115   2.039       .  S
Fe112       O119   2.072       .  S
Fe112       O123   2.063       .  S
Fe112       O128   2.057       .  S
Fe112       O122   1.967       .  S
Fe113       O131   2.107       .  S
Fe113       O118   2.090       .  S
Fe113       O125   2.109       .  S
Fe113       O114   2.092       .  S
Fe113       O122   1.978       .  S
O114        C121   1.275       .  A
O115        C129   1.266       .  A
O116        C121   1.269       .  A
O117        C120   1.263       .  A
O118        C130   1.274       .  A
O119        C132   1.270       .  A
C120        O125   1.277       .  A
C120       C1709   1.503       .  S
C121       C1569   1.469       .  S
O123        C126   1.263       .  A
O124        C126   1.263       .  A
C126       C1649   1.481       .  S
O127        C132   1.269       .  A
O128        C130   1.268       .  A
C129        O131   1.277       .  A
C129       C1509   1.488       .  S
C130       C1489   1.488       .  S
C132       C1918   1.461       .  S
Fe133       O149   2.065       .  S
Fe133       O139   2.058       .  S
Fe133       O146   2.076       .  S
Fe133       O138   2.061       .  S
Fe133       O144   1.970       .  S
Fe134       O137   2.044       .  S
Fe134       O141   2.062       .  S
Fe134       O145   2.045       .  S
Fe134       O150   2.048       .  S
Fe134       O144   1.960       .  S
Fe135       O153   2.067       .  S
Fe135       O140   2.076       .  S
Fe135       O147   2.078       .  S
Fe135       O136   2.066       .  S
Fe135       O144   1.979       .  S
O136        C143   1.271       .  A
O137        C151   1.264       .  A
O138        C143   1.272       .  A
O139        C142   1.266       .  A
O140        C152   1.271       .  A
O141        C154   1.272       .  A
C142        O147   1.269       .  A
C142       C1518   1.478       .  S
C143       C1398   1.471       .  S
O145        C148   1.261       .  A
O146        C148   1.266       .  A
C148       C1458   1.476       .  S
O149        C154   1.270       .  A
O150        C152   1.268       .  A
C151        O153   1.267       .  A
C151       C1418   1.466       .  S
C152       C1478   1.477       .  S
C154       C1429   1.484       .  S
Fe155       O171   2.057       .  S
Fe155       O161   2.058       .  S
Fe155       O168   2.077       .  S
Fe155       O160   2.052       .  S
Fe155       O166   1.981       .  S
Fe156       O159   2.044       .  S
Fe156       O163   2.067       .  S
Fe156       O167   2.042       .  S
Fe156       O172   2.058       .  S
Fe156       O166   1.964       .  S
Fe157       O175   2.102       .  S
Fe157       O162   2.081       .  S
Fe157       O169   2.087       .  S
Fe157       O158   2.092       .  S
Fe157       O166   1.985       .  S
O158        C165   1.276       .  A
O159        C173   1.265       .  A
O160        C165   1.268       .  A
O161        C164   1.266       .  A
O162        C174   1.271       .  A
O163        C176   1.272       .  A
C164        O169   1.271       .  A
C164       C1878   1.482       .  S
C165       C1309   1.483       .  S
O167        C170   1.262       .  A
O168        C170   1.267       .  A
C170       C1349   1.476       .  S
O171        C176   1.268       .  A
O172        C174   1.268       .  A
C173        O175   1.275       .  A
C173       C1329   1.485       .  S
C174       C1378   1.485       .  S
C176       C1438   1.477       .  S
Fe177       O193   2.074       .  S
Fe177       O183   2.054       .  S
Fe177       O190   2.070       .  S
Fe177       O182   2.072       .  S
Fe177       O188   1.974       .  S
Fe178       O181   2.048       .  S
Fe178       O185   2.052       .  S
Fe178       O189   2.040       .  S
Fe178       O194   2.035       .  S
Fe178       O188   1.967       .  S
Fe179       O197   2.089       .  S
Fe179       O184   2.093       .  S
Fe179       O191   2.099       .  S
Fe179       O180   2.082       .  S
Fe179       O188   1.980       .  S
O180        C187   1.274       .  A
O181        C195   1.264       .  A
O182        C187   1.274       .  A
O183        C186   1.264       .  A
O184        C196   1.275       .  A
O185        C198   1.269       .  A
C186        O191   1.273       .  A
C186       C1558   1.495       .  S
C187       C1249   1.485       .  S
O189        C192   1.260       .  A
O190        C192   1.263       .  A
C192       C1298   1.472       .  S
O193        C198   1.274       .  A
O194        C196   1.265       .  A
C195        O197   1.271       .  A
C195       C1338   1.486       .  S
C196       C1449   1.481       .  S
C198       C1269   1.484       .  S
Fe199       O215   2.070       .  S
Fe199       O205   2.062       .  S
Fe199       O212   2.091       .  S
Fe199       O204   2.069       .  S
Fe199       O210   1.966       .  S
Fe200       O203   2.041       .  S
Fe200       O207   2.071       .  S
Fe200       O211   2.044       .  S
Fe200       O216   2.047       .  S
Fe200       O210   1.952       .  S
Fe201       O219   2.081       .  S
Fe201       O206   2.080       .  S
Fe201       O213   2.084       .  S
Fe201       O202   2.072       .  S
Fe201       O210   1.976       .  S
O202        C209   1.272       .  A
O203        C217   1.265       .  A
O204        C209   1.274       .  A
O205        C208   1.267       .  A
O206        C218   1.271       .  A
O207        C220   1.278       .  A
C208        O213   1.271       .  A
C208       C1778   1.480       .  S
C209       C1189   1.475       .  S
O211        C214   1.261       .  A
O212        C214   1.269       .  A
C214       C1238   1.487       .  S
O215        C220   1.265       .  A
O216        C218   1.267       .  A
C217        O219   1.270       .  A
C217       C1409   1.474       .  S
C218       C1358   1.474       .  S
C220       C1209   1.494       .  S
Fe221       O237   2.045       .  S
Fe221       O227   2.052       .  S
Fe221       O234   2.055       .  S
Fe221       O226   2.062       .  S
Fe221       O232   1.967       .  S
Fe222       O225   2.075       .  S
Fe222       O229   2.071       .  S
Fe222       O233   2.086       .  S
Fe222       O238   2.063       .  S
Fe222       O232   1.982       .  S
Fe223       O241   2.065       .  S
Fe223       O228   2.074       .  S
Fe223       O235   2.074       .  S
Fe223       O224   2.074       .  S
Fe223       O232   1.983       .  S
O224        C231   1.266       .  A
O225        C239   1.271       .  A
O226        C231   1.267       .  A
O227        C230   1.268       .  A
O228        C240   1.270       .  A
O229        C242   1.266       .  A
C230        O235   1.271       .  A
C230       C1289   1.481       .  S
C231       C1169   1.479       .  S
O233        C236   1.274       .  A
O234        C236   1.270       .  A
C236       C1218   1.487       .  S
O237        C242   1.263       .  A
O238        C240   1.270       .  A
C239        O241   1.268       .  A
C239       C1149   1.481       .  S
C240       C1609   1.484       .  S
C242       C1469   1.476       .  S
Fe243       O259   2.073       .  S
Fe243       O249   2.063       .  S
Fe243       O256   2.093       .  S
Fe243       O248   2.070       .  S
Fe243       O254   1.982       .  S
Fe244       O247   2.048       .  S
Fe244       O251   2.052       .  S
Fe244       O255   2.042       .  S
Fe244       O260   2.049       .  S
Fe244       O254   1.960       .  S
Fe245       O263   2.082       .  S
Fe245       O250   2.090       .  S
Fe245       O257   2.090       .  S
Fe245       O246   2.064       .  S
Fe245       O254   1.985       .  S
O246        C253   1.269       .  A
O247        C261   1.263       .  A
O248        C253   1.274       .  A
O249        C252   1.267       .  A
O250        C262   1.275       .  A
O251        C264   1.272       .  A
C252        O257   1.273       .  A
C252       C1689   1.487       .  S
C253       C1129   1.474       .  S
O255        C258   1.261       .  A
O256        C258   1.269       .  A
C258       C1369   1.491       .  S
O259        C264   1.272       .  A
O260        C262   1.268       .  A
C261        O263   1.269       .  A
C261       C1178   1.490       .  S
C262       C1229   1.477       .  S
C264       C1278   1.477       .  S
Fe265       O281   2.054       .  S
Fe265       O271   2.068       .  S
Fe265       O278   2.077       .  S
Fe265       O270   2.053       .  S
Fe265       O276   1.960       .  S
Fe266       O269   2.045       .  S
Fe266       O273   2.055       .  S
Fe266       O277   2.061       .  S
Fe266       O282   2.033       .  S
Fe266       O276   1.971       .  S
Fe267       O285   2.093       .  S
Fe267       O272   2.080       .  S
Fe267       O279   2.084       .  S
Fe267       O268   2.101       .  S
Fe267       O276   1.979       .  S
O268        C275   1.277       .  A
O269        C283   1.268       .  A
O270        C275   1.270       .  A
O271        C274   1.268       .  A
O272        C284   1.271       .  A
O273        C286   1.264       .  A
C274        O279   1.270       .  A
C274       C1058   1.498       .  S
C275       C1109   1.487       .  S
O277        C280   1.266       .  A
O278        C280   1.269       .  A
C280       C1098   1.492       .  S
O281        C286   1.268       .  A
O282        C284   1.261       .  A
C283        O285   1.275       .  A
C283       C1038   1.477       .  S
C284       C1389   1.470       .  S
C286       C1078   1.459       .  S
Fe287       O303   2.038       .  S
Fe287       O293   2.058       .  S
Fe287       O300   2.059       .  S
Fe287       O292   2.034       .  S
Fe287       O298   1.960       .  S
Fe288       O291   2.048       .  S
Fe288       O295   2.074       .  S
Fe288       O299   2.057       .  S
Fe288       O304   2.063       .  S
Fe288       O298   1.975       .  S
Fe289       O307   2.089       .  S
Fe289       O294   2.073       .  S
Fe289       O301   2.085       .  S
Fe289       O290   2.094       .  S
Fe289       O298   1.976       .  S
O290        C297   1.274       .  A
O291        C305   1.267       .  A
O292        C297   1.265       .  A
O293        C296   1.267       .  A
O294        C306   1.272       .  A
O295        C308   1.269       .  A
C296        O301   1.272       .  A
C296        C978   1.491       .  S
C297       C1009   1.472       .  S
O299        C302   1.265       .  A
O300        C302   1.266       .  A
C302        C989   1.474       .  S
O303        C308   1.266       .  A
O304        C306   1.268       .  A
C305        O307   1.273       .  A
C305        C958   1.478       .  S
C306       C1318   1.480       .  S
C308       C1069   1.465       .  S
Fe309       O325   2.045       .  S
Fe309       O315   2.070       .  S
Fe309       O322   2.059       .  S
Fe309       O314   2.043       .  S
Fe309       O320   1.958       .  S
Fe310       O313   2.063       .  S
Fe310       O317   2.081       .  S
Fe310       O321   2.074       .  S
Fe310       O326   2.072       .  S
Fe310       O320   1.975       .  S
Fe311       O329   2.097       .  S
Fe311       O316   2.054       .  S
Fe311       O323   2.070       .  S
Fe311       O312   2.109       .  S
Fe311       O320   1.977       .  S
O312        C319   1.276       .  A
O313        C327   1.269       .  A
O314        C319   1.264       .  A
O315        C318   1.270       .  A
O316        C328   1.269       .  A
O317        C330   1.272       .  A
C318        O323   1.268       .  A
C318        C909   1.490       .  S
C319        C929   1.480       .  S
O321        C324   1.268       .  A
O322        C324   1.266       .  A
C324       C1018   1.481       .  S
O325        C330   1.268       .  A
O326        C328   1.272       .  A
C327        O329   1.274       .  A
C327        C869   1.496       .  S
C328       C1138   1.472       .  S
C330        C898   1.469       .  S
Fe331       O347   2.043       .  S
Fe331       O337   2.051       .  S
Fe331       O344   2.063       .  S
Fe331       O336   2.039       .  S
Fe331       O342   1.958       .  S
Fe332       O335   2.056       .  S
Fe332       O339   2.072       .  S
Fe332       O343   2.081       .  S
Fe332       O348   2.047       .  S
Fe332       O342   1.971       .  S
Fe333       O351   2.093       .  S
Fe333       O338   2.077       .  S
Fe333       O345   2.091       .  S
Fe333       O334   2.092       .  S
Fe333       O342   1.983       .  S
O334        C341   1.276       .  A
O335        C349   1.270       .  A
O336        C341   1.268       .  A
O337        C340   1.264       .  A
O338        C350   1.271       .  A
O339        C352   1.270       .  A
C340        O345   1.271       .  A
C340       C1049   1.498       .  S
C341        C998   1.467       .  S
O343        C346   1.267       .  A
O344        C346   1.265       .  A
C346        C938   1.498       .  S
O347        C352   1.268       .  A
O348        C350   1.266       .  A
C349        O351   1.273       .  A
C349        C829   1.485       .  S
C350       C1198   1.473       .  S
C352        C849   1.460       .  S
Fe353       O369   2.050       .  S
Fe353       O359   2.057       .  S
Fe353       O366   2.062       .  S
Fe353       O358   2.046       .  S
Fe353       O364   1.958       .  S
Fe354       O357   2.051       .  S
Fe354       O361   2.087       .  S
Fe354       O365   2.064       .  S
Fe354       O370   2.065       .  S
Fe354       O364   1.964       .  S
Fe355       O373   2.111       .  S
Fe355       O360   2.080       .  S
Fe355       O367   2.095       .  S
Fe355       O356   2.108       .  S
Fe355       O364   1.975       .  S
O356        C363   1.278       .  A
O357        C371   1.267       .  A
O358        C363   1.268       .  A
O359        C362   1.266       .  A
O360        C372   1.273       .  A
O361        C374   1.274       .  A
C362        O367   1.273       .  A
C362        C969   1.494       .  S
C363       C1089   1.476       .  S
O365        C368   1.264       .  A
O366        C368   1.264       .  A
C368        C818   1.490       .  S
O369        C374   1.269       .  A
O370        C372   1.270       .  A
C371        O373   1.277       .  A
C371        C789   1.488       .  S
C372       C1258   1.488       .  S
C374        C889   1.469       .  S
Fe375       O391   2.047       .  S
Fe375       O381   2.069       .  S
Fe375       O388   2.069       .  S
Fe375       O380   2.045       .  S
Fe375       O386   1.955       .  S
Fe376       O379   2.062       .  S
Fe376       O383   2.062       .  S
Fe376       O387   2.067       .  S
Fe376       O392   2.072       .  S
Fe376       O386   1.967       .  S
Fe377       O395   2.086       .  S
Fe377       O382   2.081       .  S
Fe377       O389   2.087       .  S
Fe377       O378   2.083       .  S
Fe377       O386   1.972       .  S
O378        C385   1.270       .  A
O379        C393   1.268       .  A
O380        C385   1.265       .  A
O381        C384   1.271       .  A
O382        C394   1.273       .  A
O383        C396   1.266       .  A
C384        O389   1.274       .  A
C384        C918   1.492       .  S
C385        C809   1.469       .  S
O387        C390   1.269       .  A
O388        C390   1.270       .  A
C390       C1118   1.478       .  S
O391        C396   1.266       .  A
O392        C394   1.270       .  A
C393        O395   1.271       .  A
C393        C769   1.479       .  S
C394       C1158   1.492       .  S
C396        C858   1.471       .  S
Fe397       O413   2.058       .  S
Fe397       O403   2.061       .  S
Fe397       O410   2.073       .  S
Fe397       O402   2.062       .  S
Fe397       O408   1.973       .  S
Fe398       O401   2.052       .  S
Fe398       O405   2.054       .  S
Fe398       O409   2.051       .  S
Fe398       O414   2.042       .  S
Fe398       O408   1.963       .  S
Fe399       O417   2.085       .  S
Fe399       O404   2.084       .  S
Fe399       O411   2.087       .  S
Fe399       O400   2.085       .  S
Fe399       O408   1.981       .  S
O400        C407   1.274       .  A
O401        C415   1.265       .  A
O402        C407   1.271       .  A
O403        C406   1.266       .  A
O404        C416   1.273       .  A
O405        C418   1.271       .  A
C406        O411   1.271       .  A
C406        C949   1.487       .  S
C407       C1858   1.482       .  S
O409        C412   1.263       .  A
O410        C412   1.265       .  A
C412        C729   1.480       .  S
O413        C418   1.269       .  A
O414        C416   1.267       .  A
C415        O417   1.270       .  A
C415        C689   1.482       .  S
C416        C758   1.476       .  S
C418        C709   1.482       .  S
Fe419       O435   2.104       .  S
Fe419       O425   2.024       .  S
Fe419       O432   2.048       .  S
Fe419       O424   2.103       .  S
Fe419       O430   1.947       .  S
Fe420       O423   2.040       .  S
Fe420       O427   2.030       .  S
Fe420       O431   2.076       .  S
Fe420       O436   2.020       .  S
Fe420       O430   1.935       .  S
Fe421       O439   2.095       .  S
Fe421       O426   2.123       .  S
Fe421       O433   2.127       .  S
Fe421       O422   2.045       .  S
Fe421       O430   1.958       .  S
O422        C429   1.266       .  A
O423        C437   1.261       .  A
O424        C429   1.276       .  A
O425        C428   1.260       .  A
O426        C438   1.283       .  A
O427        C440   1.262       .  A
C428        O433   1.282       .  A
C428        C778   1.498       .  S
C429       C1589   1.488       .  S
O431        C434   1.268       .  A
O432        C434   1.262       .  A
C434        C658   1.480       .  S
O435        C440   1.278       .  A
O436        C438   1.269       .  A
C437        O439   1.272       .  A
C437        C698   1.485       .  S
C438        C678   1.495       .  S
C440        C638   1.479       .  S
Fe441       O457   2.041       .  S
Fe441       O447   2.060       .  S
Fe441       O454   2.058       .  S
Fe441       O446   2.039       .  S
Fe441       O452   1.956       .  S
Fe442       O445   2.051       .  S
Fe442       O449   2.085       .  S
Fe442       O453   2.058       .  S
Fe442       O458   2.074       .  S
Fe442       O452   1.974       .  S
Fe443       O461   2.072       .  S
Fe443       O448   2.083       .  S
Fe443       O455   2.094       .  S
Fe443       O444   2.078       .  S
Fe443       O452   1.978       .  S
O444        C451   1.267       .  A
O445        C459   1.266       .  A
O446        C451   1.262       .  A
O447        C450   1.270       .  A
O448        C460   1.274       .  A
O449        C462   1.270       .  A
C450        O455   1.276       .  A
C450        C609   1.492       .  S
C451        C589   1.469       .  S
O453        C456   1.266       .  A
O454        C456   1.268       .  A
C456        C629   1.470       .  S
O457        C462   1.263       .  A
O458        C460   1.273       .  A
C459        O461   1.268       .  A
C459       C1758   1.466       .  S
C460        C838   1.490       .  S
C462        C749   1.481       .  S
Fe463       O479   2.064       .  S
Fe463       O469   2.051       .  S
Fe463       O476   2.078       .  S
Fe463       O468   2.057       .  S
Fe463       O474   1.978       .  S
Fe464       O467   2.054       .  S
Fe464       O471   2.055       .  S
Fe464       O475   2.052       .  S
Fe464       O480   2.044       .  S
Fe464       O474   1.965       .  S
Fe465       O483   2.075       .  S
Fe465       O470   2.095       .  S
Fe465       O477   2.098       .  S
Fe465       O466   2.066       .  S
Fe465       O474   1.986       .  S
O466        C473   1.268       .  A
O467        C481   1.265       .  A
O468        C473   1.268       .  A
O469        C472   1.266       .  A
O470        C482   1.276       .  A
O471        C484   1.270       .  A
C472        O477   1.275       .  A
C472        C878   1.482       .  S
C473       C1678   1.470       .  S
O475        C478   1.263       .  A
O476        C478   1.266       .  A
C478        C618   1.483       .  S
O479        C484   1.270       .  A
O480        C482   1.269       .  A
C481        O483   1.267       .  A
C481        C558   1.477       .  S
C482        C738   1.484       .  S
C484        C578   1.484       .  S
Fe485       O501   2.071       .  S
Fe485       O491   2.074       .  S
Fe485       O498   2.088       .  S
Fe485       O490   2.064       .  S
Fe485       O496   1.975       .  S
Fe486       O489   2.044       .  S
Fe486       O493   2.048       .  S
Fe486       O497   2.037       .  S
Fe486       O502   2.047       .  S
Fe486       O496   1.961       .  S
Fe487       O505   2.086       .  S
Fe487       O492   2.081       .  S
Fe487       O499   2.091       .  S
Fe487       O488   2.067       .  S
Fe487       O496   1.978       .  S
O488        C495   1.268       .  A
O489        C503   1.263       .  A
O490        C495   1.268       .  A
O491        C494   1.272       .  A
O492        C504   1.272       .  A
O493        C506   1.267       .  A
C494        O499   1.275       .  A
C494        C798   1.491       .  S
C495       C1538   1.475       .  S
O497        C500   1.262       .  A
O498        C500   1.271       .  A
C500        C538   1.476       .  S
O501        C506   1.269       .  A
O502        C504   1.267       .  A
C503        O505   1.270       .  A
C503        C598   1.472       .  S
C504        C649   1.486       .  S
C506        C569   1.484       .  S
Fe507       O523   2.081       .  S
Fe507       O513   2.054       .  S
Fe507       O520   2.075       .  S
Fe507       O512   2.073       .  S
Fe507       O518   1.982       .  S
Fe508       O511   2.043       .  S
Fe508       O515   2.038       .  S
Fe508       O519   2.045       .  S
Fe508       O524   2.045       .  S
Fe508       O518   1.966       .  S
Fe509       O527   2.076       .  S
Fe509       O514   2.085       .  S
Fe509       O521   2.082       .  S
Fe509       O510   2.061       .  S
Fe509       O518   1.987       .  S
O510        C517   1.268       .  A
O511        C525   1.263       .  A
O512        C517   1.272       .  A
O513        C516   1.267       .  A
O514        C526   1.273       .  A
O515        C528   1.266       .  A
C516        O521   1.271       .  A
C516       C1029   1.483       .  S
C517       C1498   1.474       .  S
O519        C522   1.263       .  A
O520        C522   1.267       .  A
C522        C669   1.477       .  S
O523        C528   1.273       .  A
O524        C526   1.267       .  A
C525        O527   1.267       .  A
C525        C549   1.477       .  S
C526        C529   1.483       .  S
C528        C718   1.475       .  S
C529        C530   1.414       .  A
C529        C534   1.415       .  A
C530        C531   1.409       .  A
C530       Br542   1.930       .  S
C531        C532   1.409       .  A
C531       Br546   1.929       .  S
C532        C535   1.486       .  S
C532        C533   1.409       .  A
C533        C534   1.406       .  A
C533       Br541   1.931       .  S
C534       Br545   1.934       .  S
C535        C536   1.411       .  A
C535        C540   1.409       .  A
C536        C537   1.412       .  A
C536       Br547   1.927       .  S
C537        C538   1.410       .  A
C537       Br543   1.928       .  S
C538        C539   1.411       .  A
C539        C540   1.403       .  A
C539       Br548   1.935       .  S
C540       Br544   1.933       .  S
C549        C550   1.412       .  A
C549        C554   1.412       .  A
C550        C551   1.400       .  A
C550       Br562   1.935       .  S
C551        C552   1.408       .  A
C551       Br566   1.935       .  S
C552        C555   1.483   1_554  S
C552        C553   1.410       .  A
C553        C554   1.413       .  A
C553       Br561   1.926       .  S
C554       Br565   1.928       .  S
C555        C556   1.406       .  A
C555        C560   1.410       .  A
C556        C557   1.402       .  A
C556       Br567   1.934       .  S
C557        C558   1.412       .  A
C557       Br563   1.928       .  S
C558        C559   1.409       .  A
C559        C560   1.413       .  A
C559       Br568   1.926       .  S
C560       Br564   1.926   1_556  S
C569        C570   1.415       .  A
C569        C574   1.418       .  A
C570        C571   1.401       .  A
C570       Br582   1.934       .  S
C571        C572   1.408       .  A
C571       Br586   1.935   1_554  S
C572        C575   1.480   1_554  S
C572        C573   1.406       .  A
C573        C574   1.409       .  A
C573       Br581   1.929       .  S
C574       Br585   1.930       .  S
C575        C576   1.408       .  A
C575        C580   1.406       .  A
C576        C577   1.403       .  A
C576       Br587   1.934   1_556  S
C577        C578   1.416       .  A
C577       Br583   1.937       .  S
C578        C579   1.419       .  A
C579        C580   1.407       .  A
C579       Br588   1.932       .  S
C580       Br584   1.931       .  S
C589        C590   1.408       .  A
C589        C594   1.408       .  A
C590        C591   1.400       .  A
C590       Br602   1.931       .  S
C591        C592   1.409       .  A
C591       Br606   1.934       .  S
C592        C595   1.482   1_556  S
C592        C593   1.412       .  A
C593        C594   1.411       .  A
C593       Br601   1.927   1_556  S
C594       Br605   1.928       .  S
C595        C596   1.408       .  A
C595        C600   1.411       .  A
C596        C597   1.404       .  A
C596       Br607   1.934       .  S
C597        C598   1.410       .  A
C597       Br603   1.926       .  S
C598        C599   1.407       .  A
C599        C600   1.409       .  A
C599       Br608   1.926       .  S
C600       Br604   1.928   1_554  S
C609        C610   1.417       .  A
C609        C614   1.415       .  A
C610        C611   1.407       .  A
C610       Br622   1.932       .  S
C611        C612   1.407       .  A
C611       Br626   1.932       .  S
C612        C615   1.491       .  S
C612        C613   1.410       .  A
C613        C614   1.414       .  A
C613       Br621   1.928       .  S
C614       Br625   1.928       .  S
C615        C616   1.409       .  A
C615        C620   1.412       .  A
C616        C617   1.405       .  A
C616       Br627   1.931       .  S
C617        C618   1.412       .  A
C617       Br623   1.935       .  S
C618        C619   1.412       .  A
C619        C620   1.415       .  A
C619       Br628   1.928       .  S
C620       Br624   1.927       .  S
C629        C630   1.410       .  A
C629        C634   1.409       .  A
C630        C631   1.406       .  A
C630       Br642   1.929       .  S
C631        C632   1.408       .  A
C631       Br646   1.929       .  S
C632        C635   1.476   1_556  S
C632        C633   1.407       .  A
C633        C634   1.403       .  A
C633       Br641   1.930   1_556  S
C634       Br645   1.929       .  S
C635        C636   1.407       .  A
C635        C640   1.408       .  A
C636        C637   1.409       .  A
C636       Br647   1.927       .  S
C637        C638   1.413       .  A
C637       Br643   1.930       .  S
C638        C639   1.417       .  A
C639        C640   1.399       .  A
C639       Br648   1.938       .  S
C640       Br644   1.938   1_554  S
C649        C650   1.417       .  A
C649        C654   1.415       .  A
C650        C651   1.402       .  A
C650       Br662   1.932       .  S
C651        C652   1.404       .  A
C651       Br666   1.933       .  S
C652        C655   1.480       .  S
C652        C653   1.409       .  A
C653        C654   1.410       .  A
C653       Br661   1.928       .  S
C654       Br665   1.929       .  S
C655        C656   1.407       .  A
C655        C660   1.407       .  A
C656        C657   1.402       .  A
C656       Br667   1.932       .  S
C657        C658   1.414       .  A
C657       Br663   1.932       .  S
C658        C659   1.416       .  A
C659        C660   1.409       .  A
C659       Br668   1.932       .  S
C660       Br664   1.929       .  S
C669        C670   1.412       .  A
C669        C674   1.410       .  A
C670        C671   1.402       .  A
C670       Br682   1.933       .  S
C671        C672   1.408       .  A
C671       Br686   1.934       .  S
C672        C675   1.483       .  S
C672        C673   1.410       .  A
C673        C674   1.411       .  A
C673       Br681   1.927       .  S
C674       Br685   1.928       .  S
C675        C676   1.404       .  A
C675        C680   1.409       .  A
C676        C677   1.403       .  A
C676       Br687   1.934       .  S
C677        C678   1.421       .  A
C677       Br683   1.934       .  S
C678        C679   1.418       .  A
C679        C680   1.412       .  A
C679       Br688   1.930       .  S
C680       Br684   1.928       .  S
C689        C690   1.410       .  A
C689        C694   1.412       .  A
C690        C691   1.414       .  A
C690       Br702   1.928       .  S
C691        C692   1.413       .  A
C691       Br706   1.928   1_556  S
C692        C695   1.492   1_556  S
C692        C693   1.411       .  A
C693        C694   1.406       .  A
C693       Br701   1.934       .  S
C694       Br705   1.932       .  S
C695        C696   1.413       .  A
C695        C700   1.408       .  A
C696        C697   1.415       .  A
C696       Br707   1.927   1_554  S
C697        C698   1.411       .  A
C697       Br703   1.927       .  S
C698        C699   1.416       .  A
C699        C700   1.404       .  A
C699       Br708   1.931       .  S
C700       Br704   1.935       .  S
C709        C710   1.415       .  A
C709        C714   1.420       .  A
C710        C711   1.398       .  A
C710       Br722   1.937       .  S
C711        C712   1.407       .  A
C711       Br726   1.933   1_556  S
C712        C715   1.478   1_556  S
C712        C713   1.407       .  A
C713        C714   1.408       .  A
C713       Br721   1.931       .  S
C714       Br725   1.933       .  S
C715        C716   1.407       .  A
C715        C720   1.409       .  A
C716        C717   1.401       .  A
C716       Br727   1.934   1_554  S
C717        C718   1.413       .  A
C717       Br723   1.933       .  S
C718        C719   1.412       .  A
C719        C720   1.407       .  A
C719       Br728   1.929       .  S
C720       Br724   1.930       .  S
C729        C730   1.412       .  A
C729        C734   1.414       .  A
C730        C731   1.413       .  A
C730       Br742   1.928       .  S
C731        C732   1.410       .  A
C731       Br746   1.927       .  S
C732        C735   1.485       .  S
C732        C733   1.408       .  A
C733        C734   1.403       .  A
C733       Br741   1.934       .  S
C734       Br745   1.934       .  S
C735        C736   1.410       .  A
C735        C740   1.406       .  A
C736        C737   1.413       .  A
C736       Br747   1.927       .  S
C737        C738   1.414       .  A
C737       Br743   1.930       .  S
C738        C739   1.415       .  A
C739        C740   1.403       .  A
C739       Br748   1.932       .  S
C740       Br744   1.932       .  S
C749        C750   1.413       .  A
C749        C754   1.415       .  A
C750        C751   1.412       .  A
C750       Br762   1.925       .  S
C751        C752   1.408       .  A
C751       Br766   1.928       .  S
C752        C755   1.482       .  S
C752        C753   1.408       .  A
C753        C754   1.401       .  A
C753       Br761   1.935       .  S
C754       Br765   1.937       .  S
C755        C756   1.410       .  A
C755        C760   1.406       .  A
C756        C757   1.409       .  A
C756       Br767   1.928       .  S
C757        C758   1.410       .  A
C757       Br763   1.928       .  S
C758        C759   1.412       .  A
C759        C760   1.403       .  A
C759       Br768   1.933       .  S
C760       Br764   1.930       .  S
C769        C770   1.410       .  A
C769        C774   1.410       .  A
C770        C771   1.407       .  A
C770       Br782   1.927       .  S
C771        C772   1.410       .  A
C771       Br786   1.930       .  S
C772        C775   1.488   1_655  S
C772        C773   1.410       .  A
C773        C774   1.410       .  A
C773       Br781   1.928       .  S
C774       Br785   1.927       .  S
C775        C776   1.404       .  A
C775        C780   1.410       .  A
C776        C777   1.402       .  A
C776       Br787   1.941   1_455  S
C777        C778   1.428       .  A
C777       Br783   1.942       .  S
C778        C779   1.417       .  A
C779        C780   1.417       .  A
C779       Br788   1.927       .  S
C780       Br784   1.926       .  S
C789        C790   1.411       .  A
C789        C794   1.411       .  A
C790        C791   1.407       .  A
C790       Br802   1.932       .  S
C791        C792   1.414       .  A
C791       Br806   1.934       .  S
C792        C795   1.503   1_545  S
C792        C793   1.416       .  A
C793        C794   1.418       .  A
C793       Br801   1.928       .  S
C794       Br805   1.926       .  S
C795        C796   1.414       .  A
C795        C800   1.414       .  A
C796        C797   1.411       .  A
C796       Br807   1.931   1_565  S
C797        C798   1.412       .  A
C797       Br803   1.931       .  S
C798        C799   1.412       .  A
C799        C800   1.415       .  A
C799       Br808   1.928       .  S
C800       Br804   1.928       .  S
C809        C810   1.408       .  A
C809        C814   1.406       .  A
C810        C811   1.404       .  A
C810       Br822   1.928       .  S
C811        C812   1.409       .  A
C811       Br826   1.931       .  S
C812        C815   1.484       .  S
C812        C813   1.411       .  A
C813        C814   1.409       .  A
C813       Br821   1.925       .  S
C814       Br825   1.927       .  S
C815        C816   1.407       .  A
C815        C820   1.406       .  A
C816        C817   1.406       .  A
C816       Br827   1.934       .  S
C817        C818   1.417       .  A
C817       Br823   1.933       .  S
C818        C819   1.420       .  A
C819        C820   1.410       .  A
C819       Br828   1.932       .  S
C820       Br824   1.929       .  S
C829        C830   1.411       .  A
C829        C834   1.413       .  A
C830        C831   1.402       .  A
C830       Br842   1.932       .  S
C831        C832   1.408       .  A
C831       Br846   1.932   1_655  S
C832        C835   1.488   1_655  S
C832        C833   1.411       .  A
C833        C834   1.416       .  A
C833       Br841   1.927       .  S
C834       Br845   1.927       .  S
C835        C836   1.407       .  A
C835        C840   1.409       .  A
C836        C837   1.406       .  A
C836       Br847   1.933       .  S
C837        C838   1.415       .  A
C837       Br843   1.928       .  S
C838        C839   1.414       .  A
C839        C840   1.413       .  A
C839       Br848   1.928       .  S
C840       Br844   1.926       .  S
C849        C850   1.406       .  A
C849        C854   1.406       .  A
C850        C851   1.400       .  A
C850       Br862   1.929       .  S
C851        C852   1.408       .  A
C851       Br866   1.933       .  S
C852        C855   1.471   1_556  S
C852        C853   1.408       .  A
C853        C854   1.403       .  A
C853       Br861   1.927   1_556  S
C854       Br865   1.929       .  S
C855        C856   1.407       .  A
C855        C860   1.405       .  A
C856        C857   1.400       .  A
C856       Br867   1.935       .  S
C857        C858   1.414       .  A
C857       Br863   1.935       .  S
C858        C859   1.412       .  A
C859        C860   1.405       .  A
C859       Br868   1.927       .  S
C860       Br864   1.927       .  S
C869        C870   1.416       .  A
C869        C874   1.416       .  A
C870        C871   1.417       .  A
C870       Br882   1.929       .  S
C871        C872   1.412       .  A
C871       Br886   1.928       .  S
C872        C875   1.498   1_545  S
C872        C873   1.411       .  A
C873        C874   1.409       .  A
C873       Br881   1.934       .  S
C874       Br885   1.933       .  S
C875        C876   1.413       .  A
C875        C880   1.412       .  A
C876        C877   1.412       .  A
C876       Br887   1.927   1_565  S
C877        C878   1.408       .  A
C877       Br883   1.927       .  S
C878        C879   1.411       .  A
C879        C880   1.411       .  A
C879       Br888   1.930       .  S
C880       Br884   1.929   1_565  S
C889        C890   1.408       .  A
C889        C894   1.407       .  A
C890        C891   1.409       .  A
C890       Br902   1.926       .  S
C891        C892   1.409       .  A
C891       Br906   1.927   1_554  S
C892        C895   1.480   1_554  S
C892        C893   1.409       .  A
C893        C894   1.403       .  A
C893       Br901   1.931       .  S
C894       Br905   1.929       .  S
C895        C896   1.410       .  A
C895        C900   1.408       .  A
C896        C897   1.410       .  A
C896       Br907   1.926       .  S
C897        C898   1.408       .  A
C897       Br903   1.928       .  S
C898        C899   1.408       .  A
C899        C900   1.401       .  A
C899       Br908   1.931       .  S
C900       Br904   1.933       .  S
C909        C910   1.413       .  A
C909        C914   1.418       .  A
C910        C911   1.406       .  A
C910       Br922   1.934       .  S
C911        C912   1.410       .  A
C911       Br926   1.927   1_556  S
C912        C915   1.494   1_556  S
C912        C913   1.409       .  A
C913        C914   1.413       .  A
C913       Br921   1.927       .  S
C914       Br925   1.930       .  S
C915        C916   1.409       .  A
C915        C920   1.409       .  A
C916        C917   1.408       .  A
C916       Br927   1.929   1_554  S
C917        C918   1.415       .  A
C917       Br923   1.933       .  S
C918        C919   1.416       .  A
C919        C920   1.414       .  A
C919       Br928   1.928       .  S
C920       Br924   1.928       .  S
C929        C930   1.409       .  A
C929        C934   1.409       .  A
C930        C931   1.414       .  A
C930       Br942   1.927       .  S
C931        C932   1.413       .  A
C931       Br946   1.927       .  S
C932        C935   1.494       .  S
C932        C933   1.410       .  A
C933        C934   1.407       .  A
C933       Br941   1.931       .  S
C934       Br945   1.928       .  S
C935        C936   1.409       .  A
C935        C940   1.408       .  A
C936        C937   1.414       .  A
C936       Br947   1.929       .  S
C937        C938   1.419       .  A
C937       Br943   1.930       .  S
C938        C939   1.419       .  A
C939        C940   1.410       .  A
C939       Br948   1.934       .  S
C940       Br944   1.932       .  S
C949        C950   1.411       .  A
C949        C954   1.415       .  A
C950        C951   1.413       .  A
C950       Br962   1.927       .  S
C951        C952   1.411       .  A
C951       Br966   1.927       .  S
C952        C955   1.488       .  S
C952        C953   1.407       .  A
C953        C954   1.406       .  A
C953       Br961   1.934       .  S
C954       Br965   1.926       .  S
C955        C956   1.413       .  A
C955        C960   1.410       .  A
C956        C957   1.414       .  A
C956       Br967   1.927       .  S
C957        C958   1.411       .  A
C957       Br963   1.928       .  S
C958        C959   1.410       .  A
C959        C960   1.402       .  A
C959       Br968   1.933       .  S
C960       Br964   1.933       .  S
C969        C970   1.416       .  A
C969        C974   1.416       .  A
C970        C971   1.407       .  A
C970       Br982   1.932       .  S
C971        C972   1.410       .  A
C971       Br986   1.933   1_554  S
C972        C975   1.496   1_554  S
C972        C973   1.412       .  A
C973        C974   1.416       .  A
C973       Br981   1.929       .  S
C974       Br985   1.928       .  S
C975        C976   1.411       .  A
C975        C980   1.411       .  A
C976        C977   1.408       .  A
C976       Br987   1.931   1_556  S
C977        C978   1.415       .  A
C977       Br983   1.934       .  S
C978        C979   1.416       .  A
C979        C980   1.414       .  A
C979       Br988   1.930       .  S
C980       Br984   1.929       .  S
C989        C990   1.411       .  A
C989        C994   1.413       .  A
C990        C991   1.404       .  A
C990      Br1002   1.932       .  S
C991        C992   1.409       .  A
C991      Br1006   1.932       .  S
C992        C995   1.479       .  S
C992        C993   1.409       .  A
C993        C994   1.407       .  A
C993      Br1001   1.931       .  S
C994      Br1005   1.931       .  S
C995        C996   1.408       .  A
C995       C1000   1.411       .  A
C996        C997   1.399       .  A
C996      Br1007   1.934       .  S
C997        C998   1.409       .  A
C997      Br1003   1.929       .  S
C998        C999   1.407       .  A
C999       C1000   1.410       .  A
C999      Br1008   1.928       .  S
C1000     Br1004   1.928       .  S
C1009      C1010   1.409       .  A
C1009      C1014   1.409       .  A
C1010      C1011   1.411       .  A
C1010     Br1022   1.928       .  S
C1011      C1012   1.411       .  A
C1011     Br1026   1.926       .  S
C1012      C1015   1.485       .  S
C1012      C1013   1.409       .  A
C1013      C1014   1.402       .  A
C1013     Br1021   1.931       .  S
C1014     Br1025   1.934       .  S
C1015      C1016   1.408       .  A
C1015      C1020   1.409       .  A
C1016      C1017   1.408       .  A
C1016     Br1027   1.931       .  S
C1017      C1018   1.413       .  A
C1017     Br1023   1.929       .  S
C1018      C1019   1.411       .  A
C1019      C1020   1.408       .  A
C1019     Br1028   1.930       .  S
C1020     Br1024   1.930       .  S
C1029      C1030   1.412       .  A
C1029      C1034   1.413       .  A
C1030      C1031   1.404       .  A
C1030     Br1042   1.931       .  S
C1031      C1032   1.409       .  A
C1031     Br1046   1.933       .  S
C1032      C1035   1.488       .  S
C1032      C1033   1.411       .  A
C1033      C1034   1.412       .  A
C1033     Br1041   1.928       .  S
C1034     Br1045   1.928       .  S
C1035      C1036   1.410       .  A
C1035      C1040   1.412       .  A
C1036      C1037   1.403       .  A
C1036     Br1047   1.933       .  S
C1037      C1038   1.411       .  A
C1037     Br1043   1.934       .  S
C1038      C1039   1.411       .  A
C1039      C1040   1.412       .  A
C1039     Br1048   1.929       .  S
C1040     Br1044   1.928       .  S
C1049      C1050   1.420       .  A
C1049      C1054   1.417       .  A
C1050      C1051   1.417       .  A
C1050     Br1062   1.930       .  S
C1051      C1052   1.410       .  A
C1051     Br1066   1.929       .  S
C1052      C1055   1.497   1_556  S
C1052      C1053   1.409       .  A
C1053      C1054   1.408       .  A
C1053     Br1061   1.933   1_556  S
C1054     Br1065   1.934       .  S
C1055      C1056   1.409       .  A
C1055      C1060   1.410       .  A
C1056      C1057   1.413       .  A
C1056     Br1067   1.929       .  S
C1057      C1058   1.417       .  A
C1057     Br1063   1.928       .  S
C1058      C1059   1.416       .  A
C1059      C1060   1.411       .  A
C1059     Br1068   1.931       .  S
C1060     Br1064   1.929   1_554  S
C1069      C1070   1.410       .  A
C1069      C1074   1.409       .  A
C1070      C1071   1.409       .  A
C1070     Br1082   1.928       .  S
C1071      C1072   1.407       .  A
C1071     Br1086   1.926   1_556  S
C1072      C1075   1.472   1_556  S
C1072      C1073   1.409       .  A
C1073      C1074   1.396       .  A
C1073     Br1081   1.935   1_556  S
C1074     Br1085   1.935       .  S
C1075      C1076   1.407       .  A
C1075      C1080   1.410       .  A
C1076      C1077   1.404       .  A
C1076     Br1087   1.925       .  S
C1077      C1078   1.406       .  A
C1077     Br1083   1.927       .  S
C1078      C1079   1.405       .  A
C1079      C1080   1.401       .  A
C1079     Br1088   1.931       .  S
C1080     Br1084   1.930       .  S
C1089      C1090   1.407       .  A
C1089      C1094   1.410       .  A
C1090      C1091   1.406       .  A
C1090     Br1102   1.928       .  S
C1091      C1092   1.411       .  A
C1091     Br1106   1.932       .  S
C1092      C1095   1.490       .  S
C1092      C1093   1.411       .  A
C1093      C1094   1.411       .  A
C1093     Br1101   1.928       .  S
C1094     Br1105   1.928       .  S
C1095      C1096   1.409       .  A
C1095      C1100   1.408       .  A
C1096      C1097   1.408       .  A
C1096     Br1107   1.932       .  S
C1097      C1098   1.416       .  A
C1097     Br1103   1.934       .  S
C1098      C1099   1.420       .  A
C1099      C1100   1.411       .  A
C1099     Br1108   1.933       .  S
C1100     Br1104   1.930       .  S
C1109      C1110   1.414       .  A
C1109      C1114   1.414       .  A
C1110      C1111   1.414       .  A
C1110     Br1122   1.928       .  S
C1111      C1112   1.410       .  A
C1111     Br1126   1.928       .  S
C1112      C1115   1.490       .  S
C1112      C1113   1.409       .  A
C1113      C1114   1.405       .  A
C1113     Br1121   1.934       .  S
C1114     Br1125   1.933       .  S
C1115      C1116   1.410       .  A
C1115      C1120   1.411       .  A
C1116      C1117   1.409       .  A
C1116     Br1127   1.929       .  S
C1117      C1118   1.412       .  A
C1117     Br1123   1.931       .  S
C1118      C1119   1.408       .  A
C1119      C1120   1.409       .  A
C1119     Br1128   1.929       .  S
C1120     Br1124   1.928       .  S
C1129      C1130   1.409       .  A
C1129      C1134   1.412       .  A
C1130      C1131   1.407       .  A
C1130     Br1142   1.930       .  S
C1131      C1132   1.409       .  A
C1131     Br1146   1.928       .  S
C1132      C1135   1.478       .  S
C1132      C1133   1.406       .  A
C1133      C1134   1.403       .  A
C1133     Br1141   1.932       .  S
C1134     Br1145   1.925       .  S
C1135      C1136   1.409       .  A
C1135      C1140   1.407       .  A
C1136      C1137   1.404       .  A
C1136     Br1147   1.932       .  S
C1137      C1138   1.410       .  A
C1137     Br1143   1.931       .  S
C1138      C1139   1.412       .  A
C1139      C1140   1.405       .  A
C1139     Br1148   1.931       .  S
C1140     Br1144   1.929       .  S
C1149      C1150   1.411       .  A
C1149      C1154   1.413       .  A
C1150      C1151   1.411       .  A
C1150     Br1162   1.929       .  S
C1151      C1152   1.411       .  A
C1151     Br1166   1.928       .  S
C1152      C1155   1.486       .  S
C1152      C1153   1.406       .  A
C1153      C1154   1.405       .  A
C1153     Br1161   1.933       .  S
C1154     Br1165   1.925       .  S
C1155      C1156   1.404       .  A
C1155      C1160   1.409       .  A
C1156      C1157   1.407       .  A
C1156     Br1167   1.934       .  S
C1157      C1158   1.421       .  A
C1157     Br1163   1.930       .  S
C1158      C1159   1.417       .  A
C1159      C1160   1.411       .  A
C1159     Br1168   1.931       .  S
C1160     Br1164   1.930       .  S
C1169      C1170   1.410       .  A
C1169      C1174   1.410       .  A
C1170      C1171   1.405       .  A
C1170     Br1182   1.928       .  S
C1171      C1172   1.408       .  A
C1171     Br1186   1.930       .  S
C1172      C1175   1.489       .  S
C1172      C1173   1.411       .  A
C1173      C1174   1.414       .  A
C1173     Br1181   1.926       .  S
C1174     Br1185   1.927       .  S
C1175      C1176   1.408       .  A
C1175      C1180   1.410       .  A
C1176      C1177   1.404       .  A
C1176     Br1187   1.937       .  S
C1177      C1178   1.418       .  A
C1177     Br1183   1.937       .  S
C1178      C1179   1.416       .  A
C1179      C1180   1.416       .  A
C1179     Br1188   1.929       .  S
C1180     Br1184   1.926       .  S
C1189      C1190   1.410       .  A
C1189      C1194   1.412       .  A
C1190      C1191   1.409       .  A
C1190     Br1202   1.930       .  S
C1191      C1192   1.410       .  A
C1191     Br1206   1.928       .  S
C1192      C1195   1.481       .  S
C1192      C1193   1.407       .  A
C1193      C1194   1.403       .  A
C1193     Br1201   1.933       .  S
C1194     Br1205   1.927       .  S
C1195      C1196   1.408       .  A
C1195      C1200   1.410       .  A
C1196      C1197   1.402       .  A
C1196     Br1207   1.932       .  S
C1197      C1198   1.411       .  A
C1197     Br1203   1.932       .  S
C1198      C1199   1.411       .  A
C1199      C1200   1.409       .  A
C1199     Br1208   1.929       .  S
C1200     Br1204   1.929       .  S
C1209      C1210   1.424       .  A
C1209      C1214   1.416       .  A
C1210      C1211   1.413       .  A
C1210     Br1222   1.932       .  S
C1211      C1212   1.408       .  A
C1211     Br1226   1.931       .  S
C1212      C1215   1.487       .  S
C1212      C1213   1.408       .  A
C1213      C1214   1.403       .  A
C1213     Br1221   1.935       .  S
C1214     Br1225   1.936       .  S
C1215      C1216   1.410       .  A
C1215      C1220   1.408       .  A
C1216      C1217   1.412       .  A
C1216     Br1227   1.932       .  S
C1217      C1218   1.417       .  A
C1217     Br1223   1.930       .  S
C1218      C1219   1.415       .  A
C1219      C1220   1.405       .  A
C1219     Br1228   1.933       .  S
C1220     Br1224   1.932       .  S
C1229      C1230   1.409       .  A
C1229      C1234   1.412       .  A
C1230      C1231   1.409       .  A
C1230     Br1242   1.930       .  S
C1231      C1232   1.411       .  A
C1231     Br1246   1.929       .  S
C1232      C1235   1.488       .  S
C1232      C1233   1.408       .  A
C1233      C1234   1.407       .  A
C1233     Br1241   1.928       .  S
C1234     Br1245   1.931       .  S
C1235      C1236   1.409       .  A
C1235      C1240   1.408       .  A
C1236      C1237   1.414       .  A
C1236     Br1247   1.927       .  S
C1237      C1238   1.414       .  A
C1237     Br1243   1.929       .  S
C1238      C1239   1.417       .  A
C1239      C1240   1.404       .  A
C1239     Br1248   1.935       .  S
C1240     Br1244   1.937       .  S
C1249      C1250   1.412       .  A
C1249      C1254   1.415       .  A
C1250      C1251   1.411       .  A
C1250     Br1262   1.930       .  S
C1251      C1252   1.410       .  A
C1251     Br1266   1.928       .  S
C1252      C1255   1.487       .  S
C1252      C1253   1.406       .  A
C1253      C1254   1.407       .  A
C1253     Br1261   1.932       .  S
C1254     Br1265   1.926       .  S
C1255      C1256   1.407       .  A
C1255      C1260   1.409       .  A
C1256      C1257   1.407       .  A
C1256     Br1267   1.933       .  S
C1257      C1258   1.416       .  A
C1257     Br1263   1.931       .  S
C1258      C1259   1.415       .  A
C1259      C1260   1.412       .  A
C1259     Br1268   1.931       .  S
C1260     Br1264   1.929       .  S
C1269      C1270   1.420       .  A
C1269      C1274   1.416       .  A
C1270      C1271   1.403       .  A
C1270     Br1282   1.935       .  S
C1271      C1272   1.407       .  A
C1271     Br1286   1.936       .  S
C1272      C1275   1.479       .  S
C1272      C1273   1.406       .  A
C1273      C1274   1.406       .  A
C1273     Br1281   1.929       .  S
C1274     Br1285   1.930       .  S
C1275      C1276   1.409       .  A
C1275      C1280   1.410       .  A
C1276      C1277   1.398       .  A
C1276     Br1287   1.934       .  S
C1277      C1278   1.410       .  A
C1277     Br1283   1.932       .  S
C1278      C1279   1.413       .  A
C1279      C1280   1.410       .  A
C1279     Br1288   1.928       .  S
C1280     Br1284   1.929       .  S
C1289      C1290   1.413       .  A
C1289      C1294   1.416       .  A
C1290      C1291   1.408       .  A
C1290     Br1302   1.929       .  S
C1291      C1292   1.407       .  A
C1291     Br1306   1.926       .  S
C1292      C1295   1.480       .  S
C1292      C1293   1.405       .  A
C1293      C1294   1.404       .  A
C1293     Br1301   1.930       .  S
C1294     Br1305   1.932       .  S
C1295      C1296   1.409       .  A
C1295      C1300   1.409       .  A
C1296      C1297   1.412       .  A
C1296     Br1307   1.926       .  S
C1297      C1298   1.411       .  A
C1297     Br1303   1.927       .  S
C1298      C1299   1.409       .  A
C1299      C1300   1.399       .  A
C1299     Br1308   1.935       .  S
C1300     Br1304   1.934       .  S
C1309      C1310   1.413       .  A
C1309      C1314   1.415       .  A
C1310      C1311   1.407       .  A
C1310     Br1322   1.929       .  S
C1311      C1312   1.407       .  A
C1311     Br1326   1.931       .  S
C1312      C1315   1.485       .  S
C1312      C1313   1.408       .  A
C1313      C1314   1.410       .  A
C1313     Br1321   1.930       .  S
C1314     Br1325   1.932       .  S
C1315      C1316   1.408       .  A
C1315      C1320   1.409       .  A
C1316      C1317   1.407       .  A
C1316     Br1327   1.929       .  S
C1317      C1318   1.411       .  A
C1317     Br1323   1.930       .  S
C1318      C1319   1.415       .  A
C1319      C1320   1.409       .  A
C1319     Br1328   1.932       .  S
C1320     Br1324   1.930       .  S
C1329      C1330   1.414       .  A
C1329      C1334   1.409       .  A
C1330      C1331   1.405       .  A
C1330     Br1342   1.928       .  S
C1331      C1332   1.407       .  A
C1331     Br1346   1.933       .  S
C1332      C1335   1.492       .  S
C1332      C1333   1.413       .  A
C1333      C1334   1.416       .  A
C1333     Br1341   1.925       .  S
C1334     Br1345   1.926       .  S
C1335      C1336   1.409       .  A
C1335      C1340   1.411       .  A
C1336      C1337   1.407       .  A
C1336     Br1347   1.934       .  S
C1337      C1338   1.414       .  A
C1337     Br1343   1.930       .  S
C1338      C1339   1.411       .  A
C1339      C1340   1.415       .  A
C1339     Br1348   1.928       .  S
C1340     Br1344   1.925       .  S
C1349      C1350   1.410       .  A
C1349      C1354   1.411       .  A
C1350      C1351   1.401       .  A
C1350     Br1362   1.935       .  S
C1351      C1352   1.409       .  A
C1351     Br1366   1.931       .  S
C1352      C1355   1.484       .  S
C1352      C1353   1.410       .  A
C1353      C1354   1.412       .  A
C1353     Br1361   1.926       .  S
C1354     Br1365   1.928       .  S
C1355      C1356   1.408       .  A
C1355      C1360   1.411       .  A
C1356      C1357   1.405       .  A
C1356     Br1367   1.929       .  S
C1357      C1358   1.410       .  A
C1357     Br1363   1.931       .  S
C1358      C1359   1.409       .  A
C1359      C1360   1.409       .  A
C1359     Br1368   1.929       .  S
C1360     Br1364   1.928       .  S
C1369      C1370   1.417       .  A
C1369      C1374   1.414       .  A
C1370      C1371   1.404       .  A
C1370     Br1382   1.936       .  S
C1371      C1372   1.407       .  A
C1371     Br1386   1.931       .  S
C1372      C1375   1.491       .  S
C1372      C1373   1.411       .  A
C1373      C1374   1.417       .  A
C1373     Br1381   1.926       .  S
C1374     Br1385   1.927       .  S
C1375      C1376   1.410       .  A
C1375      C1380   1.410       .  A
C1376      C1377   1.409       .  A
C1376     Br1387   1.928       .  S
C1377      C1378   1.412       .  A
C1377     Br1383   1.931       .  S
C1378      C1379   1.413       .  A
C1379      C1380   1.411       .  A
C1379     Br1388   1.931       .  S
C1380     Br1384   1.928       .  S
C1389      C1390   1.410       .  A
C1389      C1394   1.412       .  A
C1390      C1391   1.407       .  A
C1390     Br1402   1.929       .  S
C1391      C1392   1.408       .  A
C1391     Br1406   1.929       .  S
C1392      C1395   1.477       .  S
C1392      C1393   1.407       .  A
C1393      C1394   1.402       .  A
C1393     Br1401   1.933       .  S
C1394     Br1405   1.932       .  S
C1395      C1396   1.406       .  A
C1395      C1400   1.410       .  A
C1396      C1397   1.401       .  A
C1396     Br1407   1.934       .  S
C1397      C1398   1.412       .  A
C1397     Br1403   1.926       .  S
C1398      C1399   1.409       .  A
C1399      C1400   1.407       .  A
C1399     Br1408   1.931       .  S
C1400     Br1404   1.928       .  S
C1409      C1410   1.412       .  A
C1409      C1414   1.410       .  A
C1410      C1411   1.399       .  A
C1410     Br1422   1.931       .  S
C1411      C1412   1.406       .  A
C1411     Br1426   1.936       .  S
C1412      C1415   1.477       .  S
C1412      C1413   1.409       .  A
C1413      C1414   1.411       .  A
C1413     Br1421   1.926       .  S
C1414     Br1425   1.926       .  S
C1415      C1416   1.407       .  A
C1415      C1420   1.410       .  A
C1416      C1417   1.400       .  A
C1416     Br1427   1.933       .  S
C1417      C1418   1.409       .  A
C1417     Br1423   1.931       .  S
C1418      C1419   1.407       .  A
C1419      C1420   1.408       .  A
C1419     Br1428   1.928       .  S
C1420     Br1424   1.926       .  S
C1429      C1430   1.418       .  A
C1429      C1434   1.415       .  A
C1430      C1431   1.409       .  A
C1430     Br1442   1.931       .  S
C1431      C1432   1.407       .  A
C1431     Br1446   1.929       .  S
C1432      C1435   1.479       .  S
C1432      C1433   1.407       .  A
C1433      C1434   1.400       .  A
C1433     Br1441   1.934       .  S
C1434     Br1445   1.934       .  S
C1435      C1436   1.407       .  A
C1435      C1440   1.409       .  A
C1436      C1437   1.406       .  A
C1436     Br1447   1.931       .  S
C1437      C1438   1.415       .  A
C1437     Br1443   1.931       .  S
C1438      C1439   1.411       .  A
C1439      C1440   1.404       .  A
C1439     Br1448   1.932       .  S
C1440     Br1444   1.932       .  S
C1449      C1450   1.413       .  A
C1449      C1454   1.410       .  A
C1450      C1451   1.404       .  A
C1450     Br1462   1.933       .  S
C1451      C1452   1.408       .  A
C1451     Br1466   1.931       .  S
C1452      C1455   1.486       .  S
C1452      C1453   1.412       .  A
C1453      C1454   1.410       .  A
C1453     Br1461   1.927       .  S
C1454     Br1465   1.928       .  S
C1455      C1456   1.410       .  A
C1455      C1460   1.411       .  A
C1456      C1457   1.403       .  A
C1456     Br1467   1.931       .  S
C1457      C1458   1.411       .  A
C1457     Br1463   1.935       .  S
C1458      C1459   1.410       .  A
C1459      C1460   1.412       .  A
C1459     Br1468   1.928       .  S
C1460     Br1464   1.927       .  S
C1469      C1470   1.412       .  A
C1469      C1474   1.412       .  A
C1470      C1471   1.412       .  A
C1470     Br1482   1.929       .  S
C1471      C1472   1.410       .  A
C1471     Br1486   1.927       .  S
C1472      C1475   1.482       .  S
C1472      C1473   1.408       .  A
C1473      C1474   1.400       .  A
C1473     Br1481   1.933       .  S
C1474     Br1485   1.935       .  S
C1475      C1476   1.410       .  A
C1475      C1480   1.408       .  A
C1476      C1477   1.409       .  A
C1476     Br1487   1.929       .  S
C1477      C1478   1.411       .  A
C1477     Br1483   1.929       .  S
C1478      C1479   1.411       .  A
C1479      C1480   1.403       .  A
C1479     Br1488   1.932       .  S
C1480     Br1484   1.931       .  S
C1489      C1490   1.415       .  A
C1489      C1494   1.415       .  A
C1490      C1491   1.403       .  A
C1490     Br1502   1.930       .  S
C1491      C1492   1.406       .  A
C1491     Br1506   1.934       .  S
C1492      C1495   1.488       .  S
C1492      C1493   1.412       .  A
C1493      C1494   1.414       .  A
C1493     Br1501   1.929       .  S
C1494     Br1505   1.928       .  S
C1495      C1496   1.412       .  A
C1495      C1500   1.411       .  A
C1496      C1497   1.410       .  A
C1496     Br1507   1.928       .  S
C1497      C1498   1.409       .  A
C1497     Br1503   1.931       .  S
C1498      C1499   1.410       .  A
C1499      C1500   1.406       .  A
C1499     Br1508   1.930       .  S
C1500     Br1504   1.932       .  S
C1509      C1510   1.412       .  A
C1509      C1514   1.416       .  A
C1510      C1511   1.415       .  A
C1510     Br1522   1.927       .  S
C1511      C1512   1.413       .  A
C1511     Br1526   1.927       .  S
C1512      C1515   1.492       .  S
C1512      C1513   1.409       .  A
C1513      C1514   1.404       .  A
C1513     Br1521   1.935       .  S
C1514     Br1525   1.936       .  S
C1515      C1516   1.413       .  A
C1515      C1520   1.411       .  A
C1516      C1517   1.411       .  A
C1516     Br1527   1.929       .  S
C1517      C1518   1.408       .  A
C1517     Br1523   1.929       .  S
C1518      C1519   1.410       .  A
C1519      C1520   1.408       .  A
C1519     Br1528   1.930       .  S
C1520     Br1524   1.930       .  S
C1529      C1530   1.413       .  A
C1529      C1534   1.412       .  A
C1530      C1531   1.406       .  A
C1530     Br1542   1.933       .  S
C1531      C1532   1.409       .  A
C1531     Br1546   1.932       .  S
C1532      C1535   1.485       .  S
C1532      C1533   1.409       .  A
C1533      C1534   1.408       .  A
C1533     Br1541   1.929       .  S
C1534     Br1545   1.930       .  S
C1535      C1536   1.412       .  A
C1535      C1540   1.409       .  A
C1536      C1537   1.409       .  A
C1536     Br1547   1.929       .  S
C1537      C1538   1.409       .  A
C1537     Br1543   1.930       .  S
C1538      C1539   1.411       .  A
C1539      C1540   1.405       .  A
C1539     Br1548   1.928       .  S
C1540     Br1544   1.932       .  S
C1549      C1550   1.414       .  A
C1549      C1554   1.413       .  A
C1550      C1551   1.409       .  A
C1550     Br1562   1.932       .  S
C1551      C1552   1.410       .  A
C1551     Br1566   1.933   1_565  S
C1552      C1555   1.499   1_565  S
C1552      C1553   1.413       .  A
C1553      C1554   1.417       .  A
C1553     Br1561   1.926       .  S
C1554     Br1565   1.927       .  S
C1555      C1556   1.409       .  A
C1555      C1560   1.412       .  A
C1556      C1557   1.410       .  A
C1556     Br1567   1.932       .  S
C1557      C1558   1.417       .  A
C1557     Br1563   1.931       .  S
C1558      C1559   1.414       .  A
C1559      C1560   1.416       .  A
C1559     Br1568   1.927       .  S
C1560     Br1564   1.926       .  S
C1569      C1570   1.410       .  A
C1569      C1574   1.408       .  A
C1570      C1571   1.400       .  A
C1570     Br1582   1.930       .  S
C1571      C1572   1.407       .  A
C1571     Br1586   1.934       .  S
C1572      C1575   1.479       .  S
C1572      C1573   1.410       .  A
C1573      C1574   1.410       .  A
C1573     Br1581   1.926       .  S
C1574     Br1585   1.928       .  S
C1575      C1576   1.406       .  A
C1575      C1580   1.407       .  A
C1576      C1577   1.404       .  A
C1576     Br1587   1.933       .  S
C1577      C1578   1.415       .  A
C1577     Br1583   1.934       .  S
C1578      C1579   1.417       .  A
C1579      C1580   1.409       .  A
C1579     Br1588   1.932       .  S
C1580     Br1584   1.931       .  S
C1589      C1590   1.416       .  A
C1589      C1594   1.414       .  A
C1590      C1591   1.405       .  A
C1590     Br1602   1.931       .  S
C1591      C1592   1.406       .  A
C1591     Br1606   1.933       .  S
C1592      C1595   1.487       .  S
C1592      C1593   1.410       .  A
C1593      C1594   1.412       .  A
C1593     Br1601   1.929       .  S
C1594     Br1605   1.926       .  S
C1595      C1596   1.411       .  A
C1595      C1600   1.407       .  A
C1596      C1597   1.412       .  A
C1596     Br1607   1.929       .  S
C1597      C1598   1.414       .  A
C1597     Br1603   1.930       .  S
C1598      C1599   1.414       .  A
C1599      C1600   1.404       .  A
C1599     Br1608   1.931       .  S
C1600     Br1604   1.932       .  S
C1609      C1610   1.412       .  A
C1609      C1614   1.414       .  A
C1610      C1611   1.405       .  A
C1610     Br1622   1.932       .  S
C1611      C1612   1.410       .  A
C1611     Br1626   1.933       .  S
C1612      C1615   1.488   1_655  S
C1612      C1613   1.411       .  A
C1613      C1614   1.411       .  A
C1613     Br1621   1.929       .  S
C1614     Br1625   1.929       .  S
C1615      C1616   1.411       .  A
C1615      C1620   1.412       .  A
C1616      C1617   1.404       .  A
C1616     Br1627   1.933       .  S
C1617      C1618   1.410       .  A
C1617     Br1623   1.934       .  S
C1618      C1619   1.408       .  A
C1619      C1620   1.412       .  A
C1619     Br1628   1.927       .  S
C1620     Br1624   1.928       .  S
C1629      C1630   1.412       .  A
C1629      C1634   1.411       .  A
C1630      C1631   1.416       .  A
C1630     Br1642   1.927       .  S
C1631      C1632   1.412       .  A
C1631     Br1646   1.926       .  S
C1632      C1635   1.493       .  S
C1632      C1633   1.409       .  A
C1633      C1634   1.405       .  A
C1633     Br1641   1.931       .  S
C1634     Br1645   1.930       .  S
C1635      C1636   1.408       .  A
C1635      C1640   1.410       .  A
C1636      C1637   1.412       .  A
C1636     Br1647   1.929       .  S
C1637      C1638   1.418       .  A
C1637     Br1643   1.931       .  S
C1638      C1639   1.414       .  A
C1639      C1640   1.410       .  A
C1639     Br1648   1.931       .  S
C1640     Br1644   1.929       .  S
C1649      C1650   1.413       .  A
C1649      C1654   1.416       .  A
C1650      C1651   1.404       .  A
C1650     Br1662   1.934       .  S
C1651      C1652   1.408       .  A
C1651     Br1666   1.933       .  S
C1652      C1655   1.480       .  S
C1652      C1653   1.406       .  A
C1653      C1654   1.409       .  A
C1653     Br1661   1.928       .  S
C1654     Br1665   1.930       .  S
C1655      C1656   1.409       .  A
C1655      C1660   1.409       .  A
C1656      C1657   1.402       .  A
C1656     Br1667   1.929       .  S
C1657      C1658   1.408       .  A
C1657     Br1663   1.931       .  S
C1658      C1659   1.406       .  A
C1659      C1660   1.408       .  A
C1659     Br1668   1.927       .  S
C1660     Br1664   1.925       .  S
C1669      C1670   1.416       .  A
C1669      C1674   1.421       .  A
C1670      C1671   1.408       .  A
C1670     Br1682   1.932       .  S
C1671      C1672   1.406       .  A
C1671     Br1686   1.930       .  S
C1672      C1675   1.478       .  S
C1672      C1673   1.404       .  A
C1673      C1674   1.404       .  A
C1673     Br1681   1.936       .  S
C1674     Br1685   1.934       .  S
C1675      C1676   1.407       .  A
C1675      C1680   1.409       .  A
C1676      C1677   1.403       .  A
C1676     Br1687   1.931       .  S
C1677      C1678   1.410       .  A
C1677     Br1683   1.928       .  S
C1678      C1679   1.409       .  A
C1679      C1680   1.406       .  A
C1679     Br1688   1.930       .  S
C1680     Br1684   1.929       .  S
C1689      C1690   1.411       .  A
C1689      C1694   1.412       .  A
C1690      C1691   1.414       .  A
C1690     Br1702   1.929       .  S
C1691      C1692   1.413       .  A
C1691     Br1706   1.929       .  S
C1692      C1695   1.497   1_545  S
C1692      C1693   1.412       .  A
C1693      C1694   1.410       .  A
C1693     Br1701   1.933       .  S
C1694     Br1705   1.930       .  S
C1695      C1696   1.415       .  A
C1695      C1700   1.412       .  A
C1696      C1697   1.416       .  A
C1696     Br1707   1.926       .  S
C1697      C1698   1.409       .  A
C1697     Br1703   1.927       .  S
C1698      C1699   1.412       .  A
C1699      C1700   1.405       .  A
C1699     Br1708   1.933       .  S
C1700     Br1704   1.933   1_565  S
C1709      C1710   1.420       .  A
C1709      C1714   1.418       .  A
C1710      C1711   1.412       .  A
C1710     Br1722   1.934       .  S
C1711      C1712   1.410       .  A
C1711     Br1726   1.932       .  S
C1712      C1715   1.505       .  S
C1712      C1713   1.412       .  A
C1713      C1714   1.419       .  A
C1713     Br1721   1.928       .  S
C1714     Br1725   1.928       .  S
C1715      C1716   1.411       .  A
C1715      C1720   1.411       .  A
C1716      C1717   1.414       .  A
C1716     Br1727   1.930       .  S
C1717      C1718   1.418       .  A
C1717     Br1723   1.932       .  S
C1718      C1719   1.418       .  A
C1719      C1720   1.416       .  A
C1719     Br1728   1.930       .  S
C1720     Br1724   1.928       .  S
C1729      C1730   1.409       .  A
C1729      C1734   1.405       .  A
C1730      C1731   1.409       .  A
C1730     Br1742   1.928       .  S
C1731      C1732   1.408       .  A
C1731     Br1746   1.926       .  S
C1732      C1735   1.476       .  S
C1732      C1733   1.410       .  A
C1733      C1734   1.399       .  A
C1733     Br1741   1.933       .  S
C1734     Br1745   1.929       .  S
C1735      C1736   1.409       .  A
C1735      C1740   1.407       .  A
C1736      C1737   1.409       .  A
C1736     Br1747   1.925       .  S
C1737      C1738   1.408       .  A
C1737     Br1743   1.927       .  S
C1738      C1739   1.407       .  A
C1739      C1740   1.398       .  A
C1739     Br1748   1.930       .  S
C1740     Br1744   1.930       .  S
C1749      C1750   1.432       .  A
C1749      C1754   1.431       .  A
C1750      C1751   1.407       .  A
C1750     Br1762   1.938       .  S
C1751      C1752   1.401       .  A
C1751     Br1766   1.935       .  S
C1752      C1755   1.478       .  S
C1752      C1753   1.401       .  A
C1753      C1754   1.408       .  A
C1753     Br1761   1.936       .  S
C1754     Br1765   1.940       .  S
C1755      C1756   1.408       .  A
C1755      C1760   1.409       .  A
C1756      C1757   1.402       .  A
C1756     Br1767   1.930       .  S
C1757      C1758   1.406       .  A
C1757     Br1763   1.929       .  S
C1758      C1759   1.409       .  A
C1759      C1760   1.407       .  A
C1759     Br1768   1.929       .  S
C1760     Br1764   1.929       .  S
C1769      C1770   1.413       .  A
C1769      C1774   1.413       .  A
C1770      C1771   1.404       .  A
C1770     Br1782   1.933       .  S
C1771      C1772   1.410       .  A
C1771     Br1786   1.934   1_455  S
C1772      C1775   1.493   1_455  S
C1772      C1773   1.412       .  A
C1773      C1774   1.416       .  A
C1773     Br1781   1.926       .  S
C1774     Br1785   1.927       .  S
C1775      C1776   1.411       .  A
C1775      C1780   1.411       .  A
C1776      C1777   1.409       .  A
C1776     Br1787   1.930       .  S
C1777      C1778   1.411       .  A
C1777     Br1783   1.930       .  S
C1778      C1779   1.410       .  A
C1779      C1780   1.411       .  A
C1779     Br1788   1.928       .  S
C1780     Br1784   1.927       .  S
C1789      C1790   1.406       .  A
C1789      C1794   1.407       .  A
C1790      C1791   1.402       .  A
C1790     Br1802   1.927       .  S
C1791      C1792   1.410       .  A
C1791     Br1806   1.934       .  S
C1792      C1795   1.480       .  S
C1792      C1793   1.410       .  A
C1793      C1794   1.408       .  A
C1793     Br1801   1.927       .  S
C1794     Br1805   1.929       .  S
C1795      C1796   1.409       .  A
C1795      C1800   1.411       .  A
C1796      C1797   1.400       .  A
C1796     Br1807   1.933       .  S
C1797      C1798   1.407       .  A
C1797     Br1803   1.931       .  S
C1798      C1799   1.408       .  A
C1799      C1800   1.410       .  A
C1799     Br1808   1.928       .  S
C1800     Br1804   1.927       .  S
C1809      C1810   1.419       .  A
C1809      C1814   1.419       .  A
C1810      C1811   1.406       .  A
C1810     Br1822   1.936       .  S
C1811      C1812   1.409       .  A
C1811     Br1826   1.931       .  S
C1812      C1815   1.496       .  S
C1812      C1813   1.410       .  A
C1813      C1814   1.415       .  A
C1813     Br1821   1.928       .  S
C1814     Br1825   1.930       .  S
C1815      C1816   1.410       .  A
C1815      C1820   1.410       .  A
C1816      C1817   1.410       .  A
C1816     Br1827   1.931       .  S
C1817      C1818   1.415       .  A
C1817     Br1823   1.932       .  S
C1818      C1819   1.415       .  A
C1819      C1820   1.413       .  A
C1819     Br1828   1.929       .  S
C1820     Br1824   1.930       .  S
C1829      C1830   1.412       .  A
C1829      C1834   1.412       .  A
C1830      C1831   1.403       .  A
C1830     Br1842   1.929       .  S
C1831      C1832   1.407       .  A
C1831     Br1846   1.932       .  S
C1832      C1835   1.479       .  S
C1832      C1833   1.407       .  A
C1833      C1834   1.408       .  A
C1833     Br1841   1.928       .  S
C1834     Br1845   1.930       .  S
C1835      C1836   1.409       .  A
C1835      C1840   1.408       .  A
C1836      C1837   1.399       .  A
C1836     Br1847   1.931       .  S
C1837      C1838   1.408       .  A
C1837     Br1843   1.933       .  S
C1838      C1839   1.411       .  A
C1839      C1840   1.411       .  A
C1839     Br1848   1.924       .  S
C1840     Br1844   1.927       .  S
C1849      C1850   1.411       .  A
C1849      C1854   1.408       .  A
C1850      C1851   1.406       .  A
C1850     Br1862   1.932       .  S
C1851      C1852   1.410       .  A
C1851     Br1866   1.931       .  S
C1852      C1855   1.485       .  S
C1852      C1853   1.410       .  A
C1853      C1854   1.406       .  A
C1853     Br1861   1.928       .  S
C1854     Br1865   1.929       .  S
C1855      C1856   1.410       .  A
C1855      C1860   1.407       .  A
C1856      C1857   1.409       .  A
C1856     Br1867   1.930       .  S
C1857      C1858   1.412       .  A
C1857     Br1863   1.931       .  S
C1858      C1859   1.414       .  A
C1859      C1860   1.406       .  A
C1859     Br1868   1.925       .  S
C1860     Br1864   1.934       .  S
C1869      C1870   1.416       .  A
C1869      C1874   1.415       .  A
C1870      C1871   1.405       .  A
C1870     Br1882   1.935       .  S
C1871      C1872   1.409       .  A
C1871     Br1886   1.935       .  S
C1872      C1875   1.497       .  S
C1872      C1873   1.414       .  A
C1873      C1874   1.419       .  A
C1873     Br1881   1.928       .  S
C1874     Br1885   1.928       .  S
C1875      C1876   1.412       .  A
C1875      C1880   1.414       .  A
C1876      C1877   1.410       .  A
C1876     Br1887   1.929       .  S
C1877      C1878   1.410       .  A
C1877     Br1883   1.930       .  S
C1878      C1879   1.409       .  A
C1879      C1880   1.412       .  A
C1879     Br1888   1.929       .  S
C1880     Br1884   1.929       .  S
C1889      C1890   1.416       .  A
C1889      C1894   1.417       .  A
C1890      C1891   1.411       .  A
C1890     Br1902   1.932       .  S
C1891      C1892   1.411       .  A
C1891     Br1906   1.930       .  S
C1892      C1895   1.498       .  S
C1892      C1893   1.410       .  A
C1893      C1894   1.414       .  A
C1893     Br1901   1.929       .  S
C1894     Br1905   1.929       .  S
C1895      C1896   1.411       .  A
C1895      C1900   1.411       .  A
C1896      C1897   1.408       .  A
C1896     Br1907   1.931       .  S
C1897      C1898   1.414       .  A
C1897     Br1903   1.934       .  S
C1898      C1899   1.417       .  A
C1899      C1900   1.415       .  A
C1899     Br1908   1.930       .  S
C1900     Br1904   1.928       .  S
C1909      C1910   1.405       .  A
C1909      C1914   1.407       .  A
C1910      C1911   1.399       .  A
C1910     Br1922   1.932       .  S
C1911      C1912   1.410       .  A
C1911     Br1926   1.931       .  S
C1912      C1915   1.476       .  S
C1912      C1913   1.410       .  A
C1913      C1914   1.407       .  A
C1913     Br1921   1.927       .  S
C1914     Br1925   1.928       .  S
C1915      C1916   1.410       .  A
C1915      C1920   1.410       .  A
C1916      C1917   1.400       .  A
C1916     Br1927   1.932       .  S
C1917      C1918   1.404       .  A
C1917     Br1923   1.929       .  S
C1918      C1919   1.406       .  A
C1919      C1920   1.406       .  A
C1919     Br1928   1.928       .  S
C1920     Br1924   1.926       .  S
C1929      C1930   1.417       .  A
C1929      C1934   1.416       .  A
C1930      C1931   1.410       .  A
C1930     Br1942   1.931       .  S
C1931      C1932   1.408       .  A
C1931     Br1946   1.929       .  S
C1932      C1935   1.486       .  S
C1932      C1933   1.408       .  A
C1933      C1934   1.407       .  A
C1933     Br1941   1.931       .  S
C1934     Br1945   1.933       .  S
C1935      C1936   1.411       .  A
C1935      C1940   1.409       .  A
C1936      C1937   1.413       .  A
C1936     Br1947   1.927       .  S
C1937      C1938   1.410       .  A
C1937     Br1943   1.927       .  S
C1938      C1939   1.408       .  A
C1939      C1940   1.403       .  A
C1939     Br1948   1.927       .  S
C1940     Br1944   1.933       .  S
C1949      C1950   1.416       .  A
C1949      C1954   1.413       .  A
C1950      C1951   1.406       .  A
C1950     Br1962   1.934       .  S
C1951      C1952   1.408       .  A
C1951     Br1966   1.932       .  S
C1952      C1955   1.492       .  S
C1952      C1953   1.411       .  A
C1953      C1954   1.415       .  A
C1953     Br1961   1.927       .  S
C1954     Br1965   1.929       .  S
C1955      C1956   1.409       .  A
C1955      C1960   1.410       .  A
C1956      C1957   1.409       .  A
C1956     Br1967   1.930       .  S
C1957      C1958   1.413       .  A
C1957     Br1963   1.931       .  S
C1958      C1959   1.413       .  A
C1959      C1960   1.413       .  A
C1959     Br1968   1.929       .  S
C1960     Br1964   1.929       .  S
