geometry optimzed in LAMMPS
_audit_creation_date              2020-12-01 
_audit_creation_method            'lammps2cif' 
_symmetry_space_group_name_H-M    'P1' 
_symmetry_Int_Tables_number       1 
_symmetry_cell_setting            triclinic 
loop_ 
_symmetry_equiv_pos_as_xyz 
  x,y,z 
_cell_length_a                    73.75773784 
_cell_length_b                    73.44561771270956 
_cell_length_c                    30.75306300042078 
_cell_angle_alpha                 89.89753500199193 
_cell_angle_beta                  89.73692339639548 
_cell_angle_gamma                 89.96586718936781 
loop_ 
_atom_site_label 
_atom_site_type_symbol 
_atom_site_fract_x 
_atom_site_fract_y 
_atom_site_fract_z 
_atom_site_charge 
O1          O  0.37804401  0.01621372  0.51169591    -0.85100
O2          O  0.37467925  0.97998257  0.51285628    -0.82100
C3          C  0.36992105  0.96402467  0.50413436     0.98400
O4          O  0.36134370  0.96078918  0.46919001    -0.82100
O5          O  0.32939508  0.98190599  0.46339337    -0.84800
C6          C  0.31916116  0.99554181  0.45857553     1.02900
O7          O  0.32527316  0.00960192  0.43997238    -0.77600
O8          O  0.34880387  0.01992131  0.50430809    -0.77700
C9          C  0.36251052  0.01904246  0.52858488     1.02900
O10         O  0.39355300  0.01350624  0.42347365    -0.85100
O11         O  0.39236761  0.97546150  0.43061979    -0.82100
C12         C  0.38586698  0.96812238  0.39673667     0.98400
O13         O  0.37051400  0.97283899  0.38338356    -0.82200
O14         O  0.33927636  0.99147289  0.37310746    -0.84800
C15         C  0.34471883  0.00605968  0.35460866     1.02900
O16         O  0.35198939  0.01860699  0.37654311    -0.77600
O17         O  0.37342998  0.03424267  0.43976103    -0.77700
C18         C  0.38849275  0.02990102  0.42296056     1.02800
Cr19       Cr  0.38328512  0.99653741  0.46749444     1.93700
Cr20       Cr  0.35067723  0.97818045  0.42408043     1.93200
Cr21       Cr  0.35067048  0.01919326  0.44045122     1.39100
O22         O  0.36162682  0.99782348  0.44369683    -1.22800
O23         O  0.37472090  0.01934580  0.01514440    -0.85100
O24         O  0.37188823  0.98308093  0.01917829    -0.82100
C25         C  0.37048936  0.96648585  0.01087512     0.98400
O26         O  0.36514132  0.96168610  0.97330423    -0.82100
O27         O  0.33193600  0.97920485  0.95897004    -0.84800
C28         C  0.32070972  0.99192801  0.95323812     1.02900
O29         O  0.32576656  0.00662141  0.93549675    -0.77600
O30         O  0.34582793  0.02012905  0.00260906    -0.77700
C31         C  0.35864196  0.02064162  0.02948061     1.02900
O32         O  0.39412579  0.01562811  0.93329110    -0.85100
O33         O  0.39497489  0.97827335  0.94377124    -0.82100
C34         C  0.39171112  0.97141654  0.90678073     0.98400
O35         O  0.37671610  0.97432197  0.88869439    -0.82200
O36         O  0.34357926  0.98927592  0.87093534    -0.84800
C37         C  0.34752193  0.00447006  0.85308883     1.02900
O38         O  0.35325803  0.01755506  0.87571533    -0.77600
O39         O  0.37192339  0.03528519  0.93984569    -0.77700
C40         C  0.38802072  0.03149478  0.92805615     1.02800
Cr41       Cr  0.38272277  0.99906675  0.97566443     1.93700
Cr42       Cr  0.35466615  0.97758048  0.92454868     1.93200
Cr43       Cr  0.35006260  0.01867414  0.93898798     1.39100
O44         O  0.36261102  0.99842704  0.94554207    -1.22800
O45         O  0.51633700  0.84977854  0.25760412    -0.85100
O46         O  0.50538562  0.82849530  0.18960319    -0.82100
C47         C  0.49085428  0.82230341  0.20591100     0.98400
O48         O  0.47736487  0.83270656  0.20998474    -0.82100
O49         O  0.45737604  0.86440014  0.22132146    -0.84800
C50         C  0.45996966  0.87101508  0.25886704     1.02900
O51         O  0.47577558  0.87494125  0.27099452    -0.77600
O52         O  0.51268515  0.87871800  0.27062305    -0.77700
C53         C  0.51587013  0.86275246  0.28428866     1.02900
O54         O  0.53077824  0.87666082  0.19715258    -0.85100
O55         O  0.51535197  0.85742074  0.13106537    -0.82100
C56         C  0.50292283  0.85151211  0.10689578     0.98400
O57         O  0.48835716  0.84534081  0.12353156    -0.82200
O58         O  0.47023977  0.87719455  0.13956506    -0.84800
C59         C  0.46592832  0.89197498  0.15760700     1.02900
O60         O  0.47272840  0.89611339  0.19394277    -0.77600
O61         O  0.51006809  0.89754837  0.18806599    -0.77700
C62         C  0.52633329  0.89249067  0.18454320     1.02800
Cr63       Cr  0.51554365  0.85383132  0.19427248     1.93700
Cr64       Cr  0.47482773  0.85536370  0.17544696     1.93200
Cr65       Cr  0.49304970  0.88544652  0.22867705     1.39100
O66         O  0.49436471  0.86494157  0.19926717    -1.22800
O67         O  0.51608103  0.85236177  0.75895998    -0.85100
O68         O  0.50571842  0.82900955  0.69391567    -0.82100
C69         C  0.49077747  0.82319214  0.70875419     0.98400
O70         O  0.47752241  0.83391647  0.71214571    -0.82100
O71         O  0.45772251  0.86629532  0.71910543    -0.84800
C72         C  0.46086798  0.87384947  0.75544769     1.02900
O73         O  0.47679855  0.87790761  0.76579596    -0.77600
O74         O  0.51315825  0.88175351  0.76620386    -0.77700
C75         C  0.51602044  0.86622256  0.78300931     1.02900
O76         O  0.53121436  0.87708406  0.69478870    -0.85100
O77         O  0.51631928  0.85590326  0.63173414    -0.82100
C78         C  0.50409646  0.84934088  0.60794071     0.98400
O79         O  0.48909922  0.84421841  0.62458622    -0.82200
O80         O  0.47099229  0.87633590  0.63510316    -0.84800
C81         C  0.46627014  0.89147366  0.65044083     1.02900
O82         O  0.47316640  0.89715782  0.68556680    -0.77600
O83         O  0.51095823  0.89781888  0.67987440    -0.77700
C84         C  0.52723809  0.89256328  0.67923990     1.02800
Cr85       Cr  0.51590952  0.85436382  0.69511913     1.93700
Cr86       Cr  0.47530040  0.85570816  0.67456452     1.93200
Cr87       Cr  0.49371536  0.88726810  0.72221652     1.39100
O88         O  0.49486473  0.86582689  0.69691682    -1.22800
O89         O  0.49469605  0.13740392  0.24169226    -0.85100
O90         O  0.53088875  0.14186253  0.24137760    -0.82100
C91         C  0.54696024  0.14495056  0.25213776     0.98400
O92         O  0.55019931  0.15137714  0.28974211    -0.82100
O93         O  0.53010396  0.18341448  0.30402079    -0.84800
C94         C  0.51636419  0.19348778  0.30814990     1.02900
O95         O  0.50179984  0.18718394  0.32385701    -0.77600
O96         O  0.49130737  0.16630449  0.25524866    -0.77700
C97         C  0.49197668  0.15346767  0.22816393     1.02900
O98         O  0.49753456  0.11802008  0.32339377    -0.85100
O99         O  0.53535419  0.11969233  0.31734063    -0.82100
C100        C  0.54208632  0.12381020  0.35394567     0.98400
O101        O  0.53751469  0.13840950  0.37228060    -0.82200
O102        O  0.51926839  0.16996081  0.38998982    -0.84800
C103        C  0.50442150  0.16419004  0.40635269     1.02900
O104        O  0.49213530  0.15813805  0.38182860    -0.77600
O105        O  0.47685324  0.13896344  0.31471856    -0.77700
C106        C  0.48112195  0.12278390  0.32506857     1.02800
Cr107      Cr  0.51445555  0.13054032  0.28341116     1.93700
Cr108      Cr  0.53280046  0.16035367  0.33710978     1.93200
Cr109      Cr  0.49193298  0.16186681  0.31858131     1.39100
O110        O  0.51313950  0.15084441  0.31354026    -1.22800
O111        O  0.49276440  0.13605547  0.74971924    -0.85100
O112        O  0.52862865  0.14067570  0.74510467    -0.82100
C113        C  0.54510201  0.14251010  0.75309085     0.98400
O114        O  0.54966333  0.15031770  0.78829789    -0.82100
O115        O  0.53032865  0.18372309  0.79665208    -0.84800
C116        C  0.51732727  0.19459652  0.80302888     1.02900
O117        O  0.50268773  0.18878575  0.81959485    -0.77600
O118        O  0.49041289  0.16544736  0.75579883    -0.77700
C119        C  0.49025933  0.15143225  0.73207482     1.02900
O120        O  0.49704389  0.11985863  0.83468903    -0.85100
O121        O  0.53462952  0.12057070  0.82486757    -0.82100
C122        C  0.54196365  0.12631612  0.85950157     0.98400
O123        O  0.53767267  0.14161308  0.87448697    -0.82200
O124        O  0.52080896  0.17403161  0.88629148    -0.84800
C125        C  0.50619075  0.16917229  0.90535467     1.02900
O126        O  0.49330220  0.16243327  0.88376747    -0.77600
O127        O  0.47654267  0.14085250  0.82311457    -0.77700
C128        C  0.48077712  0.12505717  0.83672399     1.02800
Cr129      Cr  0.51324836  0.13058863  0.79058063     1.93700
Cr130      Cr  0.53315163  0.16196542  0.83467647     1.93200
Cr131      Cr  0.49203502  0.16361101  0.82013573     1.39100
O132        O  0.51284609  0.15196125  0.81594397    -1.22800
O133        O  0.65981122  0.99673916  0.00452820    -0.85100
O134        O  0.68201528  0.00779932  0.07042518    -0.82100
C135        C  0.68775102  0.02245208  0.05357563     0.98400
O136        O  0.67706706  0.03573721  0.04985481    -0.82100
O137        O  0.64488138  0.05561898  0.04251722    -0.84800
C138        C  0.63754407  0.05266836  0.00593611     1.02900
O139        O  0.63390927  0.03668831  0.99463473    -0.77600
O140        O  0.63079396  0.00006852  0.99354585    -0.77700
C141        C  0.64663588  0.99712712  0.97865002     1.02900
O142        O  0.63436971  0.98169323  0.06714205    -0.85100
O143        O  0.65468975  0.99740113  0.13190397    -0.82100
C144        C  0.66181142  0.00959757  0.15505951     0.98400
O145        O  0.66660438  0.02468553  0.13799415    -0.82200
O146        O  0.63439406  0.04245725  0.12581220    -0.84800
C147        C  0.61937711  0.04699736  0.10985625     1.02900
O148        O  0.61397650  0.03990614  0.07457095    -0.77600
O149        O  0.61318295  0.00189130  0.07883338    -0.77700
C150        C  0.61852004  0.98558484  0.08025545     1.02800
Cr151      Cr  0.65686011  0.99732178  0.06821038     1.93700
Cr152      Cr  0.65524626  0.03812558  0.08720133     1.93200
Cr153      Cr  0.62435073  0.01942383  0.03770759     1.39100
O154        O  0.64535816  0.01837068  0.06481544    -1.22800
O155        O  0.66182667  0.99518426  0.50410143    -0.85100
O156        O  0.68300275  0.00785793  0.57085280    -0.82100
C157        C  0.68876524  0.02264823  0.55482160     0.98400
O158        O  0.67785222  0.03554751  0.54800874    -0.82100
O159        O  0.64507031  0.05433222  0.53489333    -0.84800
C160        C  0.63866896  0.05009816  0.49786836     1.02900
O161        O  0.63621162  0.03362594  0.48916996    -0.77600
O162        O  0.63277870  0.99716427  0.49377430    -0.77700
C163        C  0.64857305  0.99518804  0.47831893     1.02900
O164        O  0.63579748  0.98082319  0.56764360    -0.85100
O165        O  0.65548100  0.99778818  0.63165362    -0.82100
C166        C  0.66145246  0.01083999  0.65415175     0.98400
O167        O  0.66627075  0.02567299  0.63587778    -0.82200
O168        O  0.63392772  0.04200756  0.61975242    -0.84800
C169        C  0.61891219  0.04564582  0.60271689     1.02900
O170        O  0.61477536  0.03870126  0.56639364    -0.77600
O171        O  0.61449893  0.00129394  0.57626502    -0.77700
C172        C  0.61985394  0.98508223  0.57969335     1.02800
Cr173      Cr  0.65822608  0.99670350  0.56800835     1.93700
Cr174      Cr  0.65536282  0.03792005  0.58289245     1.93200
Cr175      Cr  0.62586038  0.01764147  0.53352062     1.39100
O176        O  0.64641447  0.01747264  0.56206285    -1.22800
O177        O  0.13946179  0.02480814  0.01270894    -0.85100
O178        O  0.14138346  0.98820260  0.01058452    -0.82100
C179        C  0.14188299  0.97170422  0.02064722     0.98400
O180        O  0.14799147  0.96727307  0.05769721    -0.82100
O181        O  0.18177738  0.98400034  0.06641642    -0.84800
C182        C  0.19354059  0.99626585  0.07072497     1.02900
O183        O  0.18937293  0.01129420  0.08831466    -0.77600
O184        O  0.16851749  0.02535325  0.02278305    -0.77700
C185        C  0.15529984  0.02561933  0.99690984     1.02900
O186        O  0.12092122  0.02240907  0.09477628    -0.85100
O187        O  0.11950282  0.98503845  0.08821613    -0.82100
C188        C  0.12332177  0.97794910  0.12469680     0.98400
O189        O  0.13854303  0.98088978  0.14159537    -0.82200
O190        O  0.17232534  0.99487916  0.15510075    -0.84800
C191        C  0.16826124  0.00984106  0.17357070     1.02900
O192        O  0.16312336  0.02331350  0.15114137    -0.77600
O193        O  0.14371330  0.04151919  0.08855232    -0.77700
C194        C  0.12727762  0.03821361  0.09868409     1.02800
Cr195      Cr  0.13161245  0.00507975  0.05365445     1.93700
Cr196      Cr  0.15988552  0.98328886  0.10355476     1.93200
Cr197      Cr  0.16528842  0.02420697  0.08725157     1.39100
O198        O  0.15208954  0.00425861  0.08246405    -1.22800
O199        O  0.13181392  0.01608877  0.51055377    -0.85100
O200        O  0.13610298  0.97969567  0.50733693    -0.82100
C201        C  0.13949496  0.96343961  0.51664982     0.98400
O202        O  0.14720152  0.95973835  0.55260251    -0.82100
O203        O  0.17915532  0.98072993  0.56349443    -0.84800
C204        C  0.18922670  0.99440206  0.56916897     1.02900
O205        O  0.18283999  0.00829531  0.58796403    -0.77600
O206        O  0.16069789  0.01988072  0.52226394    -0.77700
C207        C  0.14758524  0.01961902  0.49614373     1.02900
O208        O  0.11388543  0.01181665  0.59456064    -0.85100
O209        O  0.11587358  0.97406593  0.58594805    -0.82100
C210        C  0.12135845  0.96622128  0.62027345     0.98400
O211        O  0.13622641  0.97060847  0.63718272    -0.82200
O212        O  0.16749870  0.98952774  0.65363072    -0.84800
C213        C  0.16237982  0.00441510  0.67152933     1.02900
O214        O  0.15485669  0.01660984  0.64905508    -0.77600
O215        O  0.13447727  0.03290872  0.58574397    -0.77700
C216        C  0.11866256  0.02822924  0.59755460     1.02800
Cr217      Cr  0.12577901  0.99559375  0.55197917     1.93700
Cr218      Cr  0.15707748  0.97667692  0.59999307     1.93200
Cr219      Cr  0.15740211  0.01794887  0.58574049     1.39100
O220        O  0.14659863  0.99663117  0.57983437    -1.22800
O221        O  0.98980232  0.85630140  0.26017006    -0.85100
O222        O  0.00198133  0.83428647  0.32478159    -0.82100
C223        C  0.01636309  0.82885257  0.30621500     0.98400
O224        O  0.02999952  0.83918507  0.30364491    -0.82100
O225        O  0.04978470  0.87217479  0.29507922    -0.84800
C226        C  0.04568263  0.87922210  0.25864973     1.02900
O227        O  0.02945454  0.87909382  0.24769538    -0.77600
O228        O  0.99337077  0.88528069  0.24787596    -0.77700
C229        C  0.98986852  0.86947106  0.23395421     1.02900
O230        O  0.97637000  0.88240427  0.32441817    -0.85100
O231        O  0.99224812  0.86181533  0.38758936    -0.82100
C232        C  0.00507162  0.85571177  0.41036625     0.98400
O233        O  0.01939436  0.84971692  0.39200676    -0.82200
O234        O  0.03606887  0.88225868  0.37870296    -0.84800
C235        C  0.04065138  0.89715295  0.36184459     1.02900
O236        O  0.03453801  0.90173060  0.32476605    -0.77600
O237        O  0.99709788  0.90375761  0.32974430    -0.77700
C238        C  0.98099581  0.89844595  0.33501774     1.02800
Cr239      Cr  0.99139583  0.85944680  0.32393003     1.93700
Cr240      Cr  0.03238539  0.86115542  0.34054769     1.93200
Cr241      Cr  0.01354714  0.89124780  0.28944705     1.39100
O242        O  0.01234624  0.87080327  0.31890799    -1.22800
O243        O  0.98931412  0.87212817  0.76271761    -0.85100
O244        O  0.00399943  0.84097593  0.79366561    -0.82100
C245        C  0.01573710  0.83033082  0.80866780     0.98400
O246        O  0.02723712  0.83604643  0.83550746    -0.82100
O247        O  0.04898224  0.85966059  0.78618549    -0.84800
C248        C  0.05348300  0.87431391  0.76733400     1.02900
O249        O  0.04658411  0.88933202  0.77846801    -0.77600
O250        O  0.01378563  0.88691391  0.74195030    -0.77700
C251        C  0.99944642  0.87850383  0.73282610     1.02900
O252        O  0.98489081  0.88467623  0.85280609    -0.85100
O253        O  0.99883352  0.85301339  0.88341053    -0.82100
C254        C  0.01009344  0.85745972  0.91271669     0.98400
O255        O  0.02589277  0.86267150  0.90266664    -0.82200
O256        O  0.05120829  0.88320268  0.85991810    -0.84800
C257        C  0.04606218  0.89917620  0.86858194     1.02900
O258        O  0.03103382  0.90501926  0.85493106    -0.77600
O259        O  0.99756476  0.90576406  0.81299821    -0.77700
C260        C  0.98551075  0.90088780  0.83974816     1.02800
Cr261      Cr  0.99600643  0.86349288  0.82306501     1.93700
Cr262      Cr  0.03679632  0.86120439  0.84425602     1.93200
Cr263      Cr  0.02178834  0.89506815  0.79923624     1.39100
O264        O  0.01804197  0.87322808  0.82211381    -1.22800
O265        O  0.01394970  0.13954895  0.27185754    -0.85100
O266        O  0.97830684  0.14378011  0.26898577    -0.82100
C267        C  0.96229639  0.14733581  0.25948054     0.98400
O268        O  0.95899421  0.15489092  0.22297396    -0.82100
O269        O  0.97982829  0.18708325  0.21510343    -0.84800
C270        C  0.99348622  0.19730776  0.21168073     1.02900
O271        O  0.00792068  0.19126600  0.19474576    -0.77600
O272        O  0.01753492  0.16883981  0.26153945    -0.77700
C273        C  0.01653892  0.15544704  0.28698521     1.02900
O274        O  0.01244367  0.12218224  0.18635330    -0.85100
O275        O  0.97417849  0.12390293  0.18872111    -0.82100
C276        C  0.96756177  0.12993015  0.15327599     0.98400
O277        O  0.97283429  0.14494362  0.13858108    -0.82200
O278        O  0.99132881  0.17632757  0.12740967    -0.84800
C279        C  0.00620732  0.17056558  0.11096403     1.02900
O280        O  0.01803829  0.16342821  0.13501946    -0.77600
O281        O  0.03277061  0.14286799  0.20074445    -0.77700
C282        C  0.02885163  0.12692577  0.18801304     1.02800
Cr283      Cr  0.99488372  0.13361293  0.22663170     1.93700
Cr284      Cr  0.97711873  0.16530234  0.17794193     1.93200
Cr285      Cr  0.01770974  0.16582955  0.19813768     1.39100
O286        O  0.99650213  0.15480265  0.20036751    -1.22800
O287        O  0.01417925  0.13887492  0.77320772    -0.85100
O288        O  0.97773035  0.14280273  0.77113891    -0.82100
C289        C  0.96200099  0.14676838  0.75904843     0.98400
O290        O  0.95954463  0.15407152  0.72223771    -0.82100
O291        O  0.98029676  0.18559453  0.71597051    -0.84800
C292        C  0.99367433  0.19608197  0.71163096     1.02900
O293        O  0.00816261  0.19019422  0.69438797    -0.77600
O294        O  0.01873783  0.16773577  0.76028446    -0.77700
C295        C  0.01757826  0.15480456  0.78697650     1.02900
O296        O  0.01252006  0.12051834  0.68983933    -0.85100
O297        O  0.97477233  0.12248205  0.69158699    -0.82100
C298        C  0.96796349  0.12794778  0.65595488     0.98400
O299        O  0.97251087  0.14309810  0.64001541    -0.82200
O300        O  0.99117649  0.17491046  0.62784155    -0.84800
C301        C  0.00588346  0.16932497  0.61068445     1.02900
O302        O  0.01817286  0.16232255  0.63357907    -0.77600
O303        O  0.03323267  0.14156696  0.69843609    -0.77700
C304        C  0.02886861  0.12543377  0.68810819     1.02800
Cr305      Cr  0.99504817  0.13259365  0.72905734     1.93700
Cr306      Cr  0.97741826  0.16391564  0.67834963     1.93200
Cr307      Cr  0.01814138  0.16459269  0.69698633     1.39100
O308        O  0.99684490  0.15347767  0.70080919    -1.22800
O309        O  0.84873811  0.00108684  0.51399481    -0.85100
O310        O  0.82612428  0.01240222  0.44858944    -0.82100
C311        C  0.82042979  0.02710587  0.46522832     0.98400
O312        O  0.83095411  0.04053779  0.46807638    -0.82100
O313        O  0.86308363  0.06042587  0.47576666    -0.84800
C314        C  0.86988188  0.05705737  0.51293657     1.02900
O315        O  0.87319320  0.04088632  0.52326565    -0.77600
O316        O  0.87787968  0.00446202  0.52275116    -0.77700
C317        C  0.86236620  0.00091151  0.53853277     1.02900
O318        O  0.87400423  0.98673720  0.45024334    -0.85100
O319        O  0.85346044  0.00203715  0.38684252    -0.82100
C320        C  0.84721489  0.01453657  0.36324321     0.98400
O321        O  0.84135560  0.02929477  0.37987350    -0.82200
O322        O  0.87346992  0.04710697  0.39102299    -0.84800
C323        C  0.88845277  0.05169010  0.40688422     1.02900
O324        O  0.89330403  0.04533748  0.44351272    -0.77600
O325        O  0.89488929  0.00746181  0.43874595    -0.77700
C326        C  0.88981942  0.99108555  0.43766260     1.02800
Cr327      Cr  0.85128290  0.00196334  0.45016283     1.93700
Cr328      Cr  0.85268070  0.04290738  0.43046147     1.93200
Cr329      Cr  0.88346676  0.02441980  0.47988086     1.39100
O330        O  0.86256224  0.02311956  0.45298469    -1.22800
O331        O  0.84879755  0.00156308  0.01225225    -0.85100
O332        O  0.82691757  0.01067113  0.94408116    -0.82100
C333        C  0.81985061  0.02516383  0.95854884     0.98400
O334        O  0.82958985  0.03917626  0.96313255    -0.82100
O335        O  0.86127354  0.06112117  0.97080428    -0.84800
C336        C  0.86871857  0.05900871  0.00770902     1.02900
O337        O  0.87205399  0.04324759  0.02116988    -0.77600
O338        O  0.87752979  0.00675386  0.02488168    -0.77700
C339        C  0.86168161  0.00320398  0.03866812     1.02900
O340        O  0.87603099  0.98757731  0.95182523    -0.85100
O341        O  0.85557898  0.00135462  0.88529483    -0.82100
C342        C  0.84845598  0.01321214  0.86104993     0.98400
O343        O  0.84185237  0.02771847  0.87727641    -0.82200
O344        O  0.87275180  0.04691240  0.88945027    -0.84800
C345        C  0.88755290  0.05218102  0.90500345     1.02900
O346        O  0.89276984  0.04650026  0.94190331    -0.77600
O347        O  0.89595265  0.00911230  0.94093921    -0.77700
C348        C  0.89157897  0.99258598  0.93867687     1.02800
Cr349      Cr  0.85255372  0.00169449  0.94875001     1.93700
Cr350      Cr  0.85187860  0.04235506  0.92739421     1.93200
Cr351      Cr  0.88322501  0.02610144  0.98011856     1.39100
O352        O  0.86263032  0.02345458  0.95180683    -1.22800
O353        O  0.49494860  0.38495535  0.25670038    -0.85100
O354        O  0.53083814  0.37963472  0.25277260    -0.82100
C355        C  0.54661641  0.37551655  0.24141918     0.98400
O356        O  0.54918922  0.36686741  0.20623856    -0.82100
O357        O  0.52822456  0.33489906  0.20775931    -0.84800
C358        C  0.51438291  0.32482332  0.20830070     1.02900
O359        O  0.49979889  0.33041739  0.19148937    -0.77600
O360        O  0.49046308  0.35565520  0.25342086    -0.77700
C361        C  0.49179210  0.36997579  0.27583931     1.02900
O362        O  0.49604581  0.39929615  0.16899975    -0.85100
O363        O  0.53376374  0.39697797  0.16854870    -0.82100
C364        C  0.53994195  0.39032724  0.13330562     0.98400
O365        O  0.53552142  0.37447427  0.12194759    -0.82200
O366        O  0.51622962  0.34266030  0.11896962    -0.84800
C367        C  0.50146511  0.34804241  0.10187248     1.02900
O368        O  0.48948017  0.35563946  0.12504104    -0.77600
O369        O  0.47544462  0.37895091  0.18603626    -0.77700
C370        C  0.47968220  0.39443290  0.17088579     1.02800
Cr371      Cr  0.51374145  0.38873429  0.20976167     1.93700
Cr372      Cr  0.53078762  0.35533367  0.16564586     1.93200
Cr373      Cr  0.49023992  0.35593310  0.18891447     1.39100
O374        O  0.51161188  0.36681049  0.18732992    -1.22800
O375        O  0.49333738  0.38130753  0.76840400    -0.85100
O376        O  0.52949425  0.37749921  0.76644266    -0.82100
C377        C  0.54572289  0.37572547  0.75547347     0.98400
O378        O  0.54935761  0.36920109  0.71821375    -0.82100
O379        O  0.52944064  0.33673368  0.70776748    -0.84800
C380        C  0.51610371  0.32617587  0.70319803     1.02900
O381        O  0.50205897  0.33206706  0.68420020    -0.77600
O382        O  0.48994930  0.35250460  0.75230816    -0.77700
C383        C  0.48998209  0.36505552  0.78016360     1.02900
O384        O  0.49548213  0.40158748  0.68741648    -0.85100
O385        O  0.53351418  0.40017757  0.69020308    -0.82100
C386        C  0.54067870  0.39543530  0.65421020     0.98400
O387        O  0.53607611  0.38081172  0.63625374    -0.82200
O388        O  0.51890314  0.34893130  0.61962727    -0.84800
C389        C  0.50448657  0.35516380  0.60224002     1.02900
O390        O  0.49191103  0.36122827  0.62614446    -0.77600
O391        O  0.47550271  0.37969369  0.69356546    -0.77700
C392        C  0.47926535  0.39621756  0.68537834     1.02800
Cr393      Cr  0.51284974  0.38889909  0.72562720     1.93700
Cr394      Cr  0.53197389  0.35924991  0.67231729     1.93200
Cr395      Cr  0.49119717  0.35717108  0.68931714     1.39100
O396        O  0.51200441  0.36868111  0.69510112    -1.22800
O397        O  0.64245320  0.52667237  0.50142600    -0.85100
O398        O  0.67427776  0.51067551  0.47891286    -0.82100
C399        C  0.68461808  0.49776866  0.46856654     0.98400
O400        O  0.67921224  0.48525995  0.44396989    -0.82100
O401        O  0.65169501  0.46538470  0.48633689    -0.84800
C402        C  0.63587165  0.46150929  0.49961695     1.02900
O403        O  0.62229721  0.46936291  0.48367821    -0.77600
O404        O  0.62785756  0.50200507  0.52240685    -0.77700
C405        C  0.63665101  0.51624653  0.53145166     1.02900
O406        O  0.63371724  0.52978231  0.40797601    -0.85100
O407        O  0.66615077  0.51470227  0.38671855    -0.82100
C408        C  0.66370430  0.50257492  0.35794162     0.98400
O409        O  0.65763114  0.48704372  0.36809662    -0.82200
O410        O  0.63260497  0.46490162  0.40616306    -0.84800
C411        C  0.61812865  0.47119800  0.39052247     1.02900
O412        O  0.61173619  0.48615413  0.40474312    -0.77600
O413        O  0.61189647  0.51997816  0.44969708    -0.77700
C414        C  0.61756797  0.53076318  0.42090885     1.02800
Cr415      Cr  0.65329804  0.51877602  0.44381645     1.93700
Cr416      Cr  0.65451336  0.47722733  0.42771564     1.93200
Cr417      Cr  0.62011620  0.49477009  0.46340396     1.39100
O418        O  0.64277400  0.49703603  0.44471493    -1.22800
O419        O  0.65778102  0.52374422  0.00797280    -0.85100
O420        O  0.67698798  0.51590977  0.93413978    -0.82100
C421        C  0.68387203  0.50105362  0.94709765     0.98400
O422        O  0.67406746  0.48702010  0.94965882    -0.82100
O423        O  0.64313609  0.46507816  0.96042233    -0.84800
C424        C  0.63789454  0.46629936  0.99977667     1.02900
O425        O  0.63563541  0.48181806  0.01576331    -0.77600
O426        O  0.62982275  0.51788139  0.02632234    -0.77700
C427        C  0.64603615  0.52128836  0.03729455     1.02900
O428        O  0.62840548  0.53910328  0.95555904    -0.85100
O429        O  0.64612875  0.52706448  0.88262775    -0.82100
C430        C  0.65243981  0.51597889  0.85519337     0.98400
O431        O  0.65955474  0.50108100  0.86779122    -0.82200
O432        O  0.62850356  0.48167698  0.88403232    -0.84800
C433        C  0.61456875  0.47575895  0.90311560     1.02900
O434        O  0.61136042  0.48020227  0.94238535    -0.77600
O435        O  0.60786842  0.51774908  0.94861683    -0.77700
C436        C  0.61224046  0.53432537  0.94729786     1.02800
Cr437      Cr  0.65161751  0.52506379  0.94526927     1.93700
Cr438      Cr  0.65092542  0.48504596  0.91770202     1.93200
Cr439      Cr  0.62237871  0.49973041  0.98083740     1.39100
O440        O  0.64145953  0.50331387  0.94741608    -1.22800
O441        O  0.36625640  0.50078704  0.01866707    -0.85100
O442        O  0.36205314  0.53717767  0.02661853    -0.82100
C443        C  0.35921499  0.55283139  0.04128947     0.98400
O444        O  0.35278813  0.55472040  0.07930996    -0.82100
O445        O  0.32090685  0.53439702  0.08488165    -0.84800
C446        C  0.31044835  0.52085287  0.08580815     1.02900
O447        O  0.31607206  0.50581130  0.10082613    -0.77600
O448        O  0.33746734  0.49670968  0.03109545    -0.77700
C449        C  0.35036097  0.49835895  0.00430079     1.02900
O450        O  0.38509063  0.50058900  0.10077555    -0.85100
O451        O  0.38367357  0.53813833  0.10402304    -0.82100
C452        C  0.37911314  0.54368007  0.14156679     0.98400
O453        O  0.36429776  0.53879533  0.15841418    -0.82200
O454        O  0.33218434  0.52066095  0.16984724    -0.84800
C455        C  0.33780254  0.50545207  0.18444810     1.02900
O456        O  0.34418204  0.49365089  0.15871394    -0.77600
O457        O  0.36407932  0.48013648  0.08946341    -0.77700
C458        C  0.38028118  0.48416087  0.09952053     1.02800
Cr459      Cr  0.37292178  0.51892737  0.06481643     1.93700
Cr460      Cr  0.34295818  0.53568701  0.12105974     1.93200
Cr461      Cr  0.34125389  0.49542657  0.09499054     1.39100
O462        O  0.35255131  0.51666774  0.09429857    -1.22800
O463        O  0.36985882  0.49967039  0.52178991    -0.85100
O464        O  0.36335494  0.53531272  0.51408325    -0.82100
C465        C  0.36219629  0.55200252  0.52072133     0.98400
O466        O  0.35464563  0.55719095  0.55582965    -0.82100
O467        O  0.32250421  0.53623333  0.56756574    -0.84800
C468        C  0.31224527  0.52277534  0.57445968     1.02900
O469        O  0.31814573  0.50924219  0.59588394    -0.77600
O470        O  0.34107866  0.49564677  0.53419113    -0.77700
C471        C  0.35419622  0.49561480  0.50795906     1.02900
O472        O  0.38778801  0.50638832  0.60348449    -0.85100
O473        O  0.38465327  0.54405493  0.59106670    -0.82100
C474        C  0.37885387  0.55214821  0.62501117     0.98400
O475        O  0.36423458  0.54720270  0.64239963    -0.82200
O476        O  0.33263144  0.52966953  0.65881479    -0.84800
C477        C  0.33799227  0.51564326  0.67971041     1.02900
O478        O  0.34542401  0.50251241  0.66022875    -0.77600
O479        O  0.36717796  0.48486722  0.60074978    -0.77700
C480        C  0.38329942  0.48997267  0.60896610     1.02800
Cr481      Cr  0.37519086  0.52132323  0.55979624     1.93700
Cr482      Cr  0.34390361  0.54105705  0.60466695     1.93200
Cr483      Cr  0.34375827  0.49940562  0.59720612     1.39100
O484        O  0.35452135  0.52056097  0.58836453    -1.22800
O485        O  0.51102294  0.66569251  0.26397787    -0.85100
O486        O  0.50052218  0.68645809  0.33389477    -0.82100
C487        C  0.48626962  0.69223371  0.31572548     0.98400
O488        O  0.47279168  0.68180037  0.31227144    -0.82100
O489        O  0.45235622  0.64975432  0.30498981    -0.84800
C490        C  0.45479257  0.64278137  0.26772278     1.02900
O491        O  0.47066434  0.64010512  0.25445047    -0.77600
O492        O  0.50705796  0.63681681  0.24941172    -0.77700
C493        C  0.51021471  0.65294645  0.23653740     1.02900
O494        O  0.52642734  0.63878311  0.32145580    -0.85100
O495        O  0.51137280  0.65725311  0.39111842    -0.82100
C496        C  0.49901857  0.66320139  0.41591193     0.98400
O497        O  0.48457669  0.66979300  0.39948152    -0.82200
O498        O  0.46639864  0.63802146  0.38590105    -0.84800
C499        C  0.46217606  0.62296189  0.36922522     1.02900
O500        O  0.46872844  0.61847647  0.33243839    -0.77600
O501        O  0.50652684  0.61720429  0.33141032    -0.77700
C502        C  0.52282060  0.62238787  0.33092258     1.02800
Cr503      Cr  0.51097223  0.66126901  0.32750190     1.93700
Cr504      Cr  0.47048766  0.65949316  0.34867049     1.93200
Cr505      Cr  0.48842685  0.62948058  0.29433173     1.39100
O506        O  0.48992951  0.64986757  0.32400316    -1.22800
O507        O  0.51008798  0.64845834  0.76968596    -0.85100
O508        O  0.49589250  0.68057478  0.79428310    -0.82100
C509        C  0.48418614  0.69181148  0.80685261     0.98400
O510        O  0.47224979  0.68695792  0.83375961    -0.82100
O511        O  0.45068650  0.66112784  0.79017276    -0.84800
C512        C  0.44563127  0.64565481  0.77680120     1.02900
O513        O  0.45288591  0.63124130  0.79081822    -0.77600
O514        O  0.48605784  0.63209173  0.75345559    -0.77700
C515        C  0.50002881  0.64075060  0.74171936     1.02900
O516        O  0.51484641  0.63890227  0.86223738    -0.85100
O517        O  0.50066589  0.67132070  0.88711985    -0.82100
C518        C  0.48878824  0.66864775  0.91667290     0.98400
O519        O  0.47297768  0.66356632  0.90686052    -0.82200
O520        O  0.44808046  0.64136331  0.86952880    -0.84800
C521        C  0.45273106  0.62594825  0.88382349     1.02900
O522        O  0.46762613  0.61904327  0.87131206    -0.77600
O523        O  0.50165520  0.61612505  0.82985562    -0.77700
C524        C  0.51398760  0.62215462  0.85414902     1.02800
Cr525      Cr  0.50355829  0.65897822  0.82848744     1.93700
Cr526      Cr  0.46264418  0.66231601  0.84827820     1.93200
Cr527      Cr  0.47759722  0.62644618  0.81301833     1.39100
O528        O  0.48146161  0.64924216  0.82993913    -1.22800
O529        O  0.00651465  0.38539249  0.25055965    -0.85100
O530        O  0.97015617  0.37940580  0.25330459    -0.82100
C531        C  0.95452392  0.37554241  0.26670907     0.98400
O532        O  0.95252381  0.36840967  0.30403213    -0.82100
O533        O  0.97401798  0.33731681  0.31199319    -0.84800
C534        C  0.98816311  0.32775988  0.31399485     1.02900
O535        O  0.00267381  0.33431988  0.32907115    -0.77600
O536        O  0.01157705  0.35657240  0.26119333    -0.77700
C537        C  0.00945334  0.36971032  0.23523995     1.02900
O538        O  0.00405908  0.40379996  0.33275856    -0.85100
O539        O  0.96666319  0.40017939  0.33158442    -0.82100
C540        C  0.96095767  0.39537606  0.36879343     0.98400
O541        O  0.96623988  0.38058325  0.38515920    -0.82200
O542        O  0.98558212  0.34927002  0.39745971    -0.84800
C543        C  0.99997871  0.35580828  0.41373839     1.02900
O544        O  0.01183696  0.36284062  0.38908580    -0.77600
O545        O  0.02547871  0.38365030  0.32205302    -0.77700
C546        C  0.02058783  0.39944624  0.33393616     1.02800
Cr547      Cr  0.98709254  0.39082330  0.29418505     1.93700
Cr548      Cr  0.97100751  0.35945055  0.34766265     1.93200
Cr549      Cr  0.01151770  0.36005979  0.32518684     1.39100
O550        O  0.98982241  0.37020256  0.32279539    -1.22800
O551        O  0.00677196  0.38769106  0.75516014    -0.85100
O552        O  0.97100584  0.38165143  0.75018419    -0.82100
C553        C  0.95489803  0.37757226  0.75858313     0.98400
O554        O  0.95120639  0.36926717  0.79386789    -0.82100
O555        O  0.97306945  0.33767664  0.80344689    -0.84800
C556        C  0.98707477  0.32805716  0.80905334     1.02900
O557        O  0.00062959  0.33495319  0.82784969    -0.77600
O558        O  0.01139339  0.35863575  0.76356120    -0.77700
C559        C  0.01032241  0.37227747  0.73873463     1.02900
O560        O  0.00123391  0.40418073  0.83988276    -0.85100
O561        O  0.96395065  0.40080615  0.83017986    -0.82100
C562        C  0.95671912  0.39475352  0.86484354     0.98400
O563        O  0.96126519  0.37943720  0.87961150    -0.82200
O564        O  0.98097353  0.34860416  0.89321487    -0.84800
C565        C  0.99502022  0.35471071  0.91235382     1.02900
O566        O  0.00742963  0.36243638  0.89080210    -0.77600
O567        O  0.02312768  0.38452480  0.82973135    -0.77700
C568        C  0.01771771  0.39992561  0.84323809     1.02800
Cr569      Cr  0.98589202  0.39220920  0.79594461     1.93700
Cr570      Cr  0.96810241  0.35932486  0.84079717     1.93200
Cr571      Cr  0.00924592  0.36085574  0.82743910     1.39100
O572        O  0.98764054  0.37091616  0.82203131    -1.22800
O573        O  0.84375713  0.52260875  0.01423505    -0.85100
O574        O  0.81889045  0.51298719  0.07695091    -0.82100
C575        C  0.81315781  0.49850809  0.05958163     0.98400
O576        O  0.82336166  0.48476920  0.05831923    -0.82100
O577        O  0.85478119  0.46376559  0.05564018    -0.84800
C578        C  0.86320241  0.46649751  0.02007460     1.02900
O579        O  0.86873881  0.48215096  0.01049127    -0.77600
O580        O  0.87299808  0.51851108  0.00965302    -0.77700
C581        C  0.85791030  0.52135993  0.99121245     1.02900
O582        O  0.86739105  0.53728220  0.08073196    -0.85100
O583        O  0.84442878  0.52279970  0.14241748    -0.82100
C584        C  0.83698150  0.51056687  0.16520418     0.98400
O585        O  0.83189527  0.49566378  0.14794485    -0.82200
O586        O  0.86329308  0.47666852  0.14105401    -0.84800
C587        C  0.87896495  0.47220098  0.12900128     1.02900
O588        O  0.88552594  0.47864931  0.09400946    -0.77600
O589        O  0.88723262  0.51646093  0.09788524    -0.77700
C590        C  0.88241832  0.53292892  0.09771295     1.02800
Cr591      Cr  0.84439718  0.52248732  0.07844744     1.93700
Cr592      Cr  0.84396303  0.48167951  0.09894197     1.93200
Cr593      Cr  0.87713797  0.49916890  0.05502406     1.39100
O594        O  0.85524277  0.50100582  0.07791778    -1.22800
O595        O  0.84166603  0.52666375  0.51424808    -0.85100
O596        O  0.82052579  0.51527053  0.58207262    -0.82100
C597        C  0.81496374  0.50067936  0.56479521     0.98400
O598        O  0.82567910  0.48742665  0.56056196    -0.82100
O599        O  0.85834619  0.46739038  0.55381967    -0.84800
C600        C  0.86572811  0.47097348  0.51749321     1.02900
O601        O  0.86610809  0.48708714  0.50481213    -0.77600
O602        O  0.87053286  0.52323660  0.50138462    -0.77700
C603        C  0.85460111  0.52594732  0.48734902     1.02900
O604        O  0.86789745  0.54171421  0.57492145    -0.85100
O605        O  0.84843361  0.52596323  0.64139495    -0.82100
C606        C  0.84207267  0.51348912  0.66524834     0.98400
O607        O  0.83607167  0.49891166  0.64810464    -0.82200
O608        O  0.86827556  0.48173204  0.63587417    -0.84800
C609        C  0.88322683  0.47724086  0.61932532     1.02900
O610        O  0.88815962  0.48383331  0.58289900    -0.77600
O611        O  0.88919696  0.52136029  0.58442284    -0.77700
C612        C  0.88387263  0.53761331  0.58652895     1.02800
Cr613      Cr  0.84538861  0.52613508  0.57794474     1.93700
Cr614      Cr  0.84739168  0.48528910  0.59761907     1.93200
Cr615      Cr  0.87732893  0.50400610  0.54536229     1.39100
O616        O  0.85690827  0.50517186  0.57442284    -1.22800
O617        O  0.12201179  0.50655798  0.53001409    -0.85100
O618        O  0.12765415  0.54268929  0.52977657    -0.82100
C619        C  0.13238654  0.55851154  0.51968298     0.98400
O620        O  0.14018845  0.56146807  0.48351216    -0.82100
O621        O  0.17131897  0.53932562  0.47838041    -0.84800
C622        C  0.18110859  0.52531538  0.47464870     1.02900
O623        O  0.17477807  0.51128817  0.45641117    -0.77600
O624        O  0.15085353  0.50136296  0.52068586    -0.77700
C625        C  0.13742556  0.50280681  0.54590500     1.02900
O626        O  0.10558281  0.50990593  0.44464838    -0.85100
O627        O  0.10887274  0.54741726  0.44852796    -0.82100
C628        C  0.11496272  0.55399128  0.41311674     0.98400
O629        O  0.13041780  0.54952619  0.39921819    -0.82200
O630        O  0.16141603  0.52973265  0.38862032    -0.84800
C631        C  0.15591476  0.51509392  0.37080039     1.02900
O632        O  0.14795067  0.50300384  0.39295632    -0.77600
O633        O  0.12553434  0.48828491  0.45532501    -0.77700
C634        C  0.11003753  0.49339023  0.44236869     1.02800
Cr635      Cr  0.11748036  0.52643208  0.48605709     1.93700
Cr636      Cr  0.15023512  0.54350276  0.43925722     1.93200
Cr637      Cr  0.14897977  0.50244201  0.45671105     1.39100
O638        O  0.13871756  0.52417920  0.45991825    -1.22800
O639        O  0.12673006  0.50137058  0.03474402    -0.85100
O640        O  0.13213219  0.53749936  0.03588015    -0.82100
C641        C  0.13324982  0.55399112  0.02635292     0.98400
O642        O  0.13903234  0.55824145  0.98872980    -0.82100
O643        O  0.17137306  0.53827201  0.97679107    -0.84800
C644        C  0.18184340  0.52478463  0.97257771     1.02900
O645        O  0.17625528  0.51061102  0.95343914    -0.77600
O646        O  0.15540617  0.49817071  0.02058051    -0.77700
C647        C  0.14270593  0.49857138  0.04803538     1.02900
O648        O  0.10694649  0.50521701  0.95506330    -0.85100
O649        O  0.10881843  0.54270223  0.96049469    -0.82100
C650        C  0.11255151  0.54931513  0.92324876     0.98400
O651        O  0.12749772  0.54563134  0.90536761    -0.82200
O652        O  0.15964478  0.52863416  0.88882357    -0.84800
C653        C  0.15413258  0.51402741  0.87098115     1.02900
O654        O  0.14817954  0.50097633  0.89362164    -0.77600
O655        O  0.12838563  0.48450380  0.95855369    -0.77700
C656        C  0.11208264  0.48897382  0.95029504     1.02800
Cr657      Cr  0.11989084  0.52170036  0.99435444     1.93700
Cr658      Cr  0.14905948  0.54119833  0.94160870     1.93200
Cr659      Cr  0.15124547  0.49985050  0.95698240     1.39100
O660        O  0.13980383  0.52083657  0.96312076    -1.22800
O661        O  0.98601001  0.67084557  0.26887819    -0.85100
O662        O  0.99539156  0.69195966  0.19929081    -0.82100
C663        C  0.01072043  0.69761265  0.21148064     0.98400
O664        O  0.02407767  0.68693473  0.21252557    -0.82100
O665        O  0.04284711  0.65436761  0.22464409    -0.84800
C666        C  0.04042351  0.64787202  0.26261014     1.02900
O667        O  0.02461185  0.64461778  0.27599429    -0.77600
O668        O  0.98795013  0.64170601  0.28063352    -0.77700
C669        C  0.98690687  0.65775737  0.29523732     1.02900
O670        O  0.96879533  0.64454875  0.20981112    -0.85100
O671        O  0.98304244  0.66414882  0.14195462    -0.82100
C672        C  0.99491429  0.66986290  0.11563235     0.98400
O673        O  0.01068071  0.67406166  0.12915749    -0.82200
O674        O  0.02828591  0.64153713  0.14435479    -0.84800
C675        C  0.03283691  0.62695550  0.16299704     1.02900
O676        O  0.02616351  0.62311107  0.19979620    -0.77600
O677        O  0.98861831  0.62306037  0.19744182    -0.77700
C678        C  0.97244586  0.62860169  0.19644512     1.02800
Cr679      Cr  0.98468502  0.66700280  0.20526926     1.93700
Cr680      Cr  0.02495460  0.66377915  0.17971788     1.93200
Cr681      Cr  0.00659374  0.63448770  0.23607680     1.39100
O682        O  0.00550967  0.65505535  0.20648678    -1.22800
O683        O  0.98423957  0.67107675  0.76594209    -0.85100
O684        O  0.99797497  0.69241679  0.70058668    -0.82100
C685        C  0.01183711  0.69821726  0.72020318     0.98400
O686        O  0.02481976  0.68759245  0.72825066    -0.82100
O687        O  0.04430268  0.65501890  0.74157946    -0.84800
C688        C  0.03963665  0.64791105  0.77767734     1.02900
O689        O  0.02313744  0.64555354  0.78550993    -0.77600
O690        O  0.98692908  0.64198328  0.77888963    -0.77700
C691        C  0.98355696  0.65796993  0.79235950     1.02900
O692        O  0.97183187  0.64467352  0.70234351    -0.85100
O693        O  0.98977202  0.66438332  0.64000750    -0.82100
C694        C  0.00291239  0.67096911  0.61888592     0.98400
O695        O  0.01717703  0.67625469  0.63848364    -0.82200
O696        O  0.03380301  0.64415070  0.65652482    -0.84800
C697        C  0.03770412  0.62915941  0.67388716     1.02900
O698        O  0.02975670  0.62419187  0.70865494    -0.77600
O699        O  0.99249391  0.62348281  0.69629897    -0.77700
C700        C  0.97644599  0.62877158  0.69059283     1.02800
Cr701      Cr  0.98729416  0.66732501  0.70290906     1.93700
Cr702      Cr  0.02854709  0.66537997  0.69280670     1.93200
Cr703      Cr  0.00798306  0.63509726  0.74013765     1.39100
O704        O  0.00801322  0.65581401  0.71144635    -1.22800
C705        C  0.00129432  0.67702089  0.99411504    -0.01700
C706        C  0.98439267  0.67150049  0.97723609     0.06900
C707        C  0.97052497  0.66655388  0.00616786    -0.07700
C708        C  0.97331447  0.66647280  0.05118513     0.04300
C709        C  0.99046890  0.67147714  0.06838145    -0.14900
C710        C  0.00411878  0.67710311  0.03916310    -0.08300
C711        C  0.98146920  0.66889746  0.92976373     0.05200
C712        C  0.97763084  0.65131459  0.91456191    -0.09400
C713        C  0.97688239  0.64756995  0.86994381     0.00200
C714        C  0.98017664  0.66162313  0.83938087     0.00100
C715        C  0.98246771  0.67953951  0.85486762    -0.12900
C716        C  0.98301483  0.68326366  0.89952885     0.00600
C717        C  0.97328989  0.62906641  0.85679863     0.39900
C718        C  0.98529337  0.70188184  0.91353331     0.36500
C719        C  0.01631593  0.68168501  0.96593662     0.36200
C720        C  0.95835089  0.66061385  0.07827734     0.37000
N721        N  0.97043074  0.61422052  0.84632599    -0.43800
N722        N  0.98712703  0.71679567  0.92477334    -0.44300
N723        N  0.94632679  0.65585545  0.09977738    -0.41600
N724        N  0.02835141  0.68551154  0.94344385    -0.43100
H725        H  0.01733317  0.68099513  0.05132914     0.13100
H726        H  0.95753492  0.66225708  0.99333758     0.09600
H727        H  0.97594984  0.64027383  0.93771346     0.10700
H728        H  0.98463418  0.69063902  0.83212259     0.16500
C729        C  0.98055189  0.67330552  0.50886871    -0.01700
C730        C  0.99499427  0.66897559  0.48061089     0.06900
C731        C  0.01259586  0.66742096  0.49749684    -0.07700
C732        C  0.01578691  0.66906438  0.54225783     0.04300
C733        C  0.00112391  0.67232612  0.57095647    -0.14900
C734        C  0.98367677  0.67480804  0.55354637    -0.08300
C735        C  0.99210556  0.66613268  0.43331127     0.05200
C736        C  0.00074850  0.67785283  0.40399428    -0.09400
C737        C  0.99910493  0.67537935  0.35914837     0.00200
C738        C  0.98808645  0.66122183  0.34261698     0.00100
C739        C  0.97962930  0.64927072  0.37206361    -0.12900
C740        C  0.98166144  0.65153571  0.41711073     0.00600
C741        C  0.01049720  0.68642639  0.33151991     0.39900
C742        C  0.97363904  0.63826293  0.44602951     0.36500
C743        C  0.96242665  0.67627309  0.49274024     0.36200
C744        C  0.03399862  0.66619814  0.55787056     0.37000
N745        N  0.02022300  0.69525286  0.31077711    -0.43800
N746        N  0.96727554  0.62763277  0.46934281    -0.44300
N747        N  0.04862434  0.66388047  0.57018824    -0.41600
N748        N  0.94791339  0.67861760  0.47972267    -0.43100
H749        H  0.97232770  0.67759721  0.57507997     0.13100
H750        H  0.02379704  0.66435152  0.47572993     0.09600
H751        H  0.00925892  0.68871652  0.41630823     0.10700
H752        H  0.97167954  0.63797825  0.35986169     0.16500
C753        C  0.08139915  0.62147649  0.81124381    -0.01700
C754        C  0.07393971  0.61015521  0.84422451     0.06900
C755        C  0.05689785  0.61491921  0.86135363    -0.07700
C756        C  0.04699049  0.62952000  0.84473918     0.04300
C757        C  0.05295455  0.63860978  0.80663200    -0.14900
C758        C  0.07062554  0.63499687  0.79153643    -0.08300
C759        C  0.08349886  0.59381296  0.86298507     0.05200
C760        C  0.08248636  0.59082513  0.90815185    -0.09400
C761        C  0.09001505  0.57535143  0.92755519     0.00200
C762        C  0.10057532  0.56318297  0.90254533     0.00100
C763        C  0.10123573  0.56573904  0.85718081    -0.12900
C764        C  0.09207522  0.58030773  0.83717100     0.00600
C765        C  0.08611679  0.57217173  0.97291610     0.39900
C766        C  0.09073339  0.58029421  0.79032563     0.36500
C767        C  0.10011646  0.61996212  0.79787470     0.36200
C768        C  0.03068691  0.63470550  0.86774065     0.37000
N769        N  0.08234233  0.56935884  0.00883643    -0.43800
N770        N  0.08958389  0.58018715  0.75279749    -0.44300
N771        N  0.01785393  0.63890551  0.88699431    -0.41600
N772        N  0.11514390  0.61886780  0.78720056    -0.43100
H773        H  0.07585547  0.64229646  0.76347519     0.13100
H774        H  0.05101068  0.60706688  0.88774987     0.09600
H775        H  0.07545299  0.60050040  0.92862115     0.10700
H776        H  0.10861861  0.55609231  0.83717117     0.16500
C777        C  0.09789305  0.56950255  0.10549266    -0.01700
C778        C  0.09622855  0.58833448  0.09641054     0.06900
C779        C  0.10962686  0.59657911  0.06997997    -0.07700
C780        C  0.12297003  0.58607956  0.04864885     0.04300
C781        C  0.12370346  0.56708664  0.05563604    -0.14900
C782        C  0.11188216  0.55944372  0.08677839    -0.08300
C783        C  0.08023438  0.59904120  0.11284966     0.05200
C784        C  0.07464991  0.59668732  0.15621260    -0.09400
C785        C  0.05837311  0.60400217  0.17171388     0.00200
C786        C  0.04796332  0.61573977  0.14495338     0.00100
C787        C  0.05389385  0.61878275  0.10203346    -0.12900
C788        C  0.06960224  0.61036906  0.08563715     0.00600
C789        C  0.05304190  0.59922381  0.21555398     0.39900
C790        C  0.07433599  0.61372389  0.04078028     0.36500
C791        C  0.08447439  0.55944085  0.13014236     0.36200
C792        C  0.13535655  0.59504360  0.01918513     0.37000
N793        N  0.04876746  0.59522115  0.25054866    -0.43800
N794        N  0.07817324  0.61674763  0.00497795    -0.44300
N795        N  0.14530189  0.60227499  0.99562620    -0.41600
N796        N  0.07384153  0.55124131  0.14984200    -0.43100
H797        H  0.11225822  0.54494444  0.09355776     0.13100
H798        H  0.10923939  0.61114924  0.06446814     0.09600
H799        H  0.08291679  0.58868636  0.17818589     0.10700
H800        H  0.04624934  0.62784013  0.08109109     0.16500
C801        C  0.10656788  0.59916289  0.35785675    -0.01700
C802        C  0.08755619  0.59937071  0.35302841     0.06900
C803        C  0.07755950  0.58395811  0.36624667    -0.07700
C804        C  0.08609643  0.56886393  0.38538708     0.04300
C805        C  0.10507955  0.56876744  0.39038487    -0.14900
C806        C  0.11511379  0.58390555  0.37590747    -0.08300
C807        C  0.07780171  0.61525127  0.33358308     0.05200
C808        C  0.08261889  0.62143255  0.29179740    -0.09400
C809        C  0.07199723  0.63435106  0.26983554     0.00200
C810        C  0.05574908  0.64078775  0.28914662     0.00100
C811        C  0.05214052  0.63610004  0.33275063    -0.12900
C812        C  0.06297560  0.62353013  0.35495950     0.00600
C813        C  0.07739523  0.63949734  0.22632495     0.39900
C814        C  0.05819297  0.61888348  0.39920010     0.36500
C815        C  0.11756644  0.61471128  0.34632922     0.36200
C816        C  0.07517189  0.55350512  0.39862183     0.37000
N817        N  0.08178019  0.64360671  0.19148102    -0.43800
N818        N  0.05431346  0.61513377  0.43460105    -0.44300
N819        N  0.06642748  0.54117455  0.40918808    -0.41600
N820        N  0.12639915  0.62715991  0.33708630    -0.43100
H821        H  0.12969857  0.58411833  0.38023525     0.13100
H822        H  0.06299221  0.58374392  0.36169818     0.09600
H823        H  0.09414698  0.61539954  0.27520094     0.10700
H824        H  0.04005276  0.64131264  0.34868554     0.16500
C825        C  0.12659728  0.50519654  0.66684031    -0.01700
C826        C  0.14404454  0.50535482  0.68556745     0.06900
C827        C  0.15912820  0.50227074  0.65864667    -0.07700
C828        C  0.15725804  0.50011414  0.61361981     0.04300
C829        C  0.13987415  0.50141620  0.59411622    -0.14900
C830        C  0.12467408  0.50350307  0.62159995    -0.08300
C831        C  0.14707263  0.50818678  0.73309186     0.05200
C832        C  0.15647908  0.49475256  0.75659997    -0.09400
C833        C  0.15970718  0.49671591  0.80125074     0.00200
C834        C  0.15370310  0.51247841  0.82312472     0.00100
C835        C  0.14500354  0.52623400  0.79947744    -0.12900
C836        C  0.14153849  0.52421908  0.75500415     0.00600
C837        C  0.16955793  0.48259012  0.82375488     0.39900
C838        C  0.13206477  0.53881480  0.73336111     0.36500
C839        C  0.11044789  0.50647629  0.69336509     0.36200
C840        C  0.17359169  0.49684454  0.58871889     0.37000
N841        N  0.17755598  0.47133351  0.84177191    -0.43800
N842        N  0.12415835  0.55064972  0.71734133    -0.44300
N843        N  0.18672602  0.49409708  0.56905517    -0.41600
N844        N  0.09751732  0.50752480  0.71467411    -0.43100
H845        H  0.11120347  0.50416928  0.60773376     0.13100
H846        H  0.17255348  0.50184677  0.67288649     0.09600
H847        H  0.16110339  0.48256284  0.74009863     0.10700
H848        H  0.14022470  0.53831343  0.81621362     0.16500
C849        C  0.15334112  0.52378376  0.24995181    -0.01700
C850        C  0.15598856  0.50615806  0.23275108     0.06900
C851        C  0.16087820  0.49193492  0.26080408    -0.07700
C852        C  0.16192821  0.49477537  0.30582505     0.04300
C853        C  0.15825852  0.51219937  0.32337781    -0.14900
C854        C  0.15462177  0.52669394  0.29488888    -0.08300
C855        C  0.15245412  0.50212979  0.18614024     0.05200
C856        C  0.16693569  0.49810066  0.15808630    -0.09400
C857        C  0.16411813  0.49576035  0.11325914     0.00200
C858        C  0.14637924  0.49739065  0.09577029     0.00100
C859        C  0.13183399  0.50032214  0.12477257    -0.12900
C860        C  0.13472288  0.50267177  0.16935382     0.00600
C861        C  0.17980671  0.49219845  0.08629763     0.39900
C862        C  0.11926949  0.50591808  0.19730871     0.36500
C863        C  0.14864928  0.53893309  0.22217608     0.36200
C864        C  0.16669798  0.47957356  0.33335135     0.37000
N865        N  0.19243614  0.48932793  0.06489865    -0.43800
N866        N  0.10693331  0.50855397  0.21981920    -0.44300
N867        N  0.17053780  0.46742663  0.35550118    -0.41600
N868        N  0.14478098  0.55100478  0.19982258    -0.43100
H869        H  0.15177786  0.54011242  0.30792259     0.13100
H870        H  0.16318090  0.47843273  0.24766836     0.09600
H871        H  0.18056352  0.49734208  0.17107947     0.10700
H872        H  0.11812233  0.50148253  0.11252059     0.16500
C873        C  0.08424375  0.62157770  0.62649348    -0.01700
C874        C  0.08458143  0.60270466  0.61896862     0.06900
C875        C  0.06990800  0.59200062  0.63347215    -0.07700
C876        C  0.05463118  0.60005205  0.65314584     0.04300
C877        C  0.05359393  0.61917649  0.65643954    -0.14900
C878        C  0.06870543  0.62966420  0.64393454    -0.08300
C879        C  0.09981978  0.59398974  0.59488388     0.05200
C880        C  0.11045307  0.58084054  0.61588539    -0.09400
C881        C  0.12337908  0.57077222  0.59260370     0.00200
C882        C  0.12548619  0.57343745  0.54738866     0.00100
C883        C  0.11606343  0.58772966  0.52726158    -0.12900
C884        C  0.10326307  0.59797781  0.55056640     0.00600
C885        C  0.13397459  0.55719361  0.61500824     0.39900
C886        C  0.09290006  0.61156441  0.52744841     0.36500
C887        C  0.09993270  0.63280251  0.61803131     0.36200
C888        C  0.04034403  0.58845545  0.66940139     0.37000
N889        N  0.14280089  0.54628803  0.63194343    -0.43800
N890        N  0.08470026  0.62255649  0.50902973    -0.44300
N891        N  0.02910443  0.57901339  0.68299652    -0.41600
N892        N  0.11259499  0.64173558  0.61173335    -0.43100
H893        H  0.06853209  0.64429198  0.64868004     0.13100
H894        H  0.07033642  0.57736898  0.62903845     0.09600
H895        H  0.10826223  0.57807016  0.65015852     0.10700
H896        H  0.11741315  0.58978385  0.49244866     0.16500
C897        C  0.92322777  0.55921584  0.64522106    -0.01700
C898        C  0.92245925  0.57742021  0.63061789     0.06900
C899        C  0.90876661  0.58261311  0.60158900    -0.07700
C900        C  0.89585433  0.57004112  0.58722183     0.04300
C901        C  0.89665918  0.55177150  0.60166970    -0.14900
C902        C  0.91043431  0.54661777  0.63064481    -0.08300
C903        C  0.93603414  0.59111934  0.64457655     0.05200
C904        C  0.95436744  0.58816957  0.63471139    -0.09400
C905        C  0.96768553  0.60047781  0.64805216     0.00200
C906        C  0.96276030  0.61604007  0.67258316     0.00100
C907        C  0.94428034  0.61928207  0.68100393    -0.12900
C908        C  0.93096105  0.60705984  0.66706383     0.00600
C909        C  0.98610410  0.59712590  0.63416827     0.39900
C910        C  0.91221429  0.61097486  0.67703831     0.36500
C911        C  0.93684092  0.55315605  0.67562962     0.36200
C912        C  0.88246699  0.57615126  0.55635549     0.37000
N913        N  0.00077383  0.59446563  0.62231533    -0.43800
N914        N  0.89716069  0.61413751  0.68465346    -0.44300
N915        N  0.87175867  0.58108040  0.53158659    -0.41600
N916        N  0.94775579  0.54822684  0.69987785    -0.43100
H917        H  0.91116382  0.53268333  0.64223209     0.13100
H918        H  0.90831307  0.59651061  0.58970140     0.09600
H919        H  0.95825594  0.57624700  0.61612177     0.10700
H920        H  0.94019969  0.63121935  0.69926396     0.16500
C921        C  0.90371958  0.57949256  0.11409135    -0.01700
C922        C  0.91850647  0.57558593  0.14146500     0.06900
C923        C  0.92082063  0.55768257  0.15661852    -0.07700
C924        C  0.90911126  0.54364504  0.14378892     0.04300
C925        C  0.89466002  0.54739128  0.11488696    -0.14900
C926        C  0.89200513  0.56549873  0.10115297    -0.08300
C927        C  0.93208500  0.58975327  0.15357528     0.05200
C928        C  0.92665862  0.60509043  0.17757265    -0.09400
C929        C  0.93929805  0.61829637  0.19067244     0.00200
C930        C  0.95796066  0.61599793  0.18080890     0.00100
C931        C  0.96317233  0.60085440  0.15564171    -0.12900
C932        C  0.95048193  0.58797752  0.14168325     0.00600
C933        C  0.93265194  0.63382985  0.21461575     0.39900
C934        C  0.95658316  0.57330256  0.11403204     0.36500
C935        C  0.90068090  0.59762080  0.09743905     0.36200
C936        C  0.91213340  0.52568032  0.16156211     0.37000
N937        N  0.92723077  0.64633013  0.23350446    -0.43800
N938        N  0.96139943  0.56159494  0.09164121    -0.44300
N939        N  0.91455949  0.51131397  0.17595196    -0.41600
N940        N  0.89821433  0.61215854  0.08415047    -0.43100
H941        H  0.88098558  0.56872975  0.07923268     0.13100
H942        H  0.93195516  0.55464748  0.17839095     0.09600
H943        H  0.91249373  0.60666660  0.18642858     0.10700
H944        H  0.97727575  0.59906740  0.14646510     0.16500
C945        C  0.84457840  0.50102718  0.78480283    -0.01700
C946        C  0.84699915  0.51813053  0.80464751     0.06900
C947        C  0.84672710  0.53387533  0.77893998    -0.07700
C948        C  0.84458365  0.53282246  0.73377666     0.04300
C949        C  0.84232511  0.51563933  0.71343549    -0.14900
C950        C  0.84207387  0.49991545  0.73969871    -0.08300
C951        C  0.85009170  0.51992466  0.85213965     0.05200
C952        C  0.86676646  0.51448884  0.86957067    -0.09400
C953        C  0.87007129  0.51558980  0.91439090     0.00200
C954        C  0.85643124  0.52235010  0.94284696     0.00100
C955        C  0.83990424  0.52821246  0.92474274    -0.12900
C956        C  0.83666094  0.52701066  0.88000926     0.00600
C957        C  0.88728323  0.50889852  0.92992146     0.39900
C958        C  0.81913547  0.53237966  0.86363828     0.36500
C959        C  0.84481910  0.48443866  0.81007357     0.36200
C960        C  0.84501150  0.54965905  0.70944115     0.37000
N961        N  0.90110665  0.50346459  0.94201905    -0.43800
N962        N  0.80506579  0.53660596  0.85051919    -0.44300
N963        N  0.84550109  0.56316308  0.69001386    -0.41600
N964        N  0.84507957  0.47115450  0.83035765    -0.43100
H965        H  0.84059943  0.48662621  0.72485960     0.13100
H966        H  0.84856914  0.54703608  0.79421492     0.09600
H967        H  0.87714392  0.50909759  0.84805959     0.10700
H968        H  0.82919971  0.53330172  0.94571333     0.16500
C969        C  0.84055132  0.50170353  0.28596712    -0.01700
C970        C  0.83824156  0.51929342  0.30349200     0.06900
C971        C  0.83334828  0.53364844  0.27580180    -0.07700
C972        C  0.83175407  0.53088840  0.23079761     0.04300
C973        C  0.83503779  0.51345336  0.21283579    -0.14900
C974        C  0.83882550  0.49888565  0.24106187    -0.08300
C975        C  0.84206205  0.52305643  0.35011232     0.05200
C976        C  0.86013914  0.52478806  0.36334314    -0.09400
C977        C  0.86462038  0.52676320  0.40740599     0.00200
C978        C  0.85076788  0.52700620  0.43957068     0.00100
C979        C  0.83256648  0.52609069  0.42564789    -0.12900
C980        C  0.82817446  0.52407565  0.38153379     0.00600
C981        C  0.88358472  0.52816648  0.41823328     0.39900
C982        C  0.80937282  0.52225785  0.36943698     0.36500
C983        C  0.84524470  0.48646692  0.31342937     0.36200
C984        C  0.82672486  0.54615074  0.20374186     0.37000
N985        N  0.89882422  0.52929820  0.42658842    -0.43800
N986        N  0.79430230  0.52075725  0.35977265    -0.44300
N987        N  0.82264152  0.55833249  0.18195548    -0.41600
N988        N  0.84900956  0.47429429  0.33556659    -0.43100
H989        H  0.84141147  0.48544948  0.22781065     0.13100
H990        H  0.83129541  0.54714013  0.28923425     0.09600
H991        H  0.87084561  0.52417018  0.33909760     0.10700
H992        H  0.82165920  0.52617300  0.44939192     0.16500
C993        C  0.05880244  0.41796305  0.90300466    -0.01700
C994        C  0.05735218  0.43693181  0.89648992     0.06900
C995        C  0.04248098  0.44376492  0.87323119    -0.07700
C996        C  0.02927675  0.43207271  0.85622684     0.04300
C997        C  0.03094298  0.41301390  0.86184626    -0.14900
C998        C  0.04577575  0.40621646  0.88541492    -0.08300
C999        C  0.07148040  0.44984135  0.91222338     0.05200
C1000       C  0.08938603  0.44807232  0.89695016    -0.09400
C1001       C  0.10291535  0.46040688  0.90944292     0.00200
C1002       C  0.09855451  0.47506855  0.93725459     0.00100
C1003       C  0.08064702  0.47676254  0.95265874    -0.12900
C1004       C  0.06722151  0.46424794  0.94080580     0.00600
C1005       C  0.12093102  0.45815039  0.89172265     0.39900
C1006       C  0.04929552  0.46618398  0.95932878     0.36500
C1007       C  0.07326514  0.41028064  0.92865352     0.36200
C1008       C  0.01469016  0.44002133  0.83143352     0.37000
N1009       N  0.13537282  0.45633320  0.87751672    -0.43800
N1010       N  0.03494854  0.46768472  0.97429682    -0.44300
N1011       N  0.00306683  0.44646570  0.81147222    -0.41600
N1012       N  0.08483011  0.40415995  0.94936993    -0.43100
H1013       H  0.04708551  0.39167182  0.89059435     0.13100
H1014       H  0.04135746  0.45830354  0.86769456     0.09600
H1015       H  0.09273524  0.43716493  0.87459633     0.10700
H1016       H  0.07716037  0.48779928  0.97454182     0.16500
C1017       C  0.88420096  0.44432677  0.92249275    -0.01700
C1018       C  0.89381937  0.42994038  0.94240593     0.06900
C1019       C  0.88944352  0.42520218  0.98550009    -0.07700
C1020       C  0.87695800  0.43540054  0.00974841     0.04300
C1021       C  0.86937461  0.45136233  0.99177196    -0.14900
C1022       C  0.87234756  0.45505437  0.94736892    -0.08300
C1023       C  0.90955059  0.42080431  0.92072065     0.05200
C1024       C  0.92373770  0.43151290  0.90362035    -0.09400
C1025       C  0.93930426  0.42350104  0.88543497     0.00200
C1026       C  0.94123638  0.40438797  0.88564121     0.00100
C1027       C  0.92719850  0.39373911  0.90350961    -0.12900
C1028       C  0.91134330  0.40168303  0.91991099     0.00600
C1029       C  0.95327342  0.43523342  0.86816078     0.39900
C1030       C  0.89682990  0.38985554  0.93409620     0.36500
C1031       C  0.88661897  0.44864419  0.87699425     0.36200
C1032       C  0.87328797  0.42981398  0.05388747     0.37000
N1033       N  0.96441270  0.44473204  0.85435256    -0.43800
N1034       N  0.88517704  0.38039612  0.94539545    -0.44300
N1035       N  0.87021619  0.42495120  0.08893964    -0.41600
N1036       N  0.88849604  0.45204730  0.84048919    -0.43100
H1037       H  0.86627177  0.46703739  0.93276813     0.13100
H1038       H  0.89652468  0.41406957  0.00119779     0.09600
H1039       H  0.92276765  0.44623075  0.90497729     0.10700
H1040       H  0.92825071  0.37901134  0.90299366     0.16500
C1041       C  0.93700394  0.40709490  0.66933594    -0.01700
C1042       C  0.92196259  0.41520474  0.69018551     0.06900
C1043       C  0.91521741  0.40716130  0.72852627    -0.07700
C1044       C  0.92425893  0.39257379  0.74844448     0.04300
C1045       C  0.94080540  0.38619580  0.73081814    -0.14900
C1046       C  0.94629955  0.39285090  0.68978937    -0.08300
C1047       C  0.91258687  0.43157178  0.67215565     0.05200
C1048       C  0.89388153  0.43052009  0.66502871    -0.09400
C1049       C  0.88419807  0.44543849  0.64914981     0.00200
C1050       C  0.89328746  0.46189206  0.63902473     0.00100
C1051       C  0.91201775  0.46306144  0.64596418    -0.12900
C1052       C  0.92163137  0.44823829  0.66348114     0.00600
C1053       C  0.86497118  0.44316885  0.64211855     0.39900
C1054       C  0.94052252  0.45077255  0.67394639     0.36500
C1055       C  0.94341045  0.41330870  0.62741934     0.36200
C1056       C  0.91650115  0.38492433  0.78753271     0.37000
N1057       N  0.84957188  0.44128229  0.63666650    -0.43800
N1058       N  0.95565999  0.45287641  0.68230489    -0.44300
N1059       N  0.90995255  0.37861414  0.81830817    -0.41600
N1060       N  0.94866131  0.41831433  0.59395550    -0.43100
H1061       H  0.95866747  0.38774292  0.67493008     0.13100
H1062       H  0.90311821  0.41268069  0.74377138     0.09600
H1063       H  0.88678479  0.41788427  0.67172049     0.10700
H1064       H  0.91903981  0.47567253  0.63864220     0.16500
C1065       C  0.04339123  0.44511832  0.35206409    -0.01700
C1066       C  0.05965930  0.44010967  0.37309138     0.06900
C1067       C  0.06310605  0.42156123  0.38058794    -0.07700
C1068       C  0.05077783  0.40812064  0.36765397     0.04300
C1069       C  0.03432779  0.41313225  0.34739251    -0.14900
C1070       C  0.03088313  0.43170616  0.33984882    -0.08300
C1071       C  0.07275953  0.45395641  0.38966458     0.05200
C1072       C  0.06653956  0.46735625  0.41868992    -0.09400
C1073       C  0.07839092  0.48030242  0.43616911     0.00200
C1074       C  0.09700993  0.47986053  0.42517888     0.00100
C1075       C  0.10332188  0.46630655  0.39676834    -0.12900
C1076       C  0.09140692  0.45352747  0.37873210     0.00600
C1077       C  0.07121705  0.49332007  0.46691033     0.39900
C1078       C  0.09862625  0.44041424  0.34831448     0.36500
C1079       C  0.03935708  0.46388974  0.34185668     0.36200
C1080       C  0.05510191  0.38936744  0.37724148     0.37000
N1081       N  0.06542783  0.50367532  0.49167376    -0.43800
N1082       N  0.10450005  0.42991213  0.32402686    -0.44300
N1083       N  0.05859796  0.37433847  0.38487241    -0.41600
N1084       N  0.03609484  0.47892446  0.33369024    -0.43100
H1085       H  0.01845407  0.43577829  0.32380762     0.13100
H1086       H  0.07536596  0.41756026  0.39743786     0.09600
H1087       H  0.05237612  0.46752995  0.42830122     0.10700
H1088       H  0.11757197  0.46592510  0.38793066     0.16500
C1089       C  0.92648920  0.40876940  0.45474797    -0.01700
C1090       C  0.91663469  0.42255163  0.43354712     0.06900
C1091       C  0.92188765  0.42802232  0.39163658    -0.07700
C1092       C  0.93677705  0.42014504  0.37068603     0.04300
C1093       C  0.94655652  0.40597111  0.39143053    -0.14900
C1094       C  0.94114158  0.40048436  0.43349781    -0.08300
C1095       C  0.90308982  0.43388442  0.45666692     0.05200
C1096       C  0.90768512  0.45208557  0.46298647    -0.09400
C1097       C  0.89566866  0.46410410  0.48250927     0.00200
C1098       C  0.87826208  0.45802103  0.49615897     0.00100
C1099       C  0.87380506  0.43954663  0.49140223    -0.12900
C1100       C  0.88607907  0.42744050  0.47141207     0.00600
C1101       C  0.90224959  0.48238971  0.48987512     0.39900
C1102       C  0.88086642  0.40867586  0.46572871     0.36500
C1103       C  0.92231046  0.40343455  0.49886967     0.36200
C1104       C  0.94148916  0.42705870  0.32807992     0.37000
N1105       N  0.90783744  0.49688903  0.49585347    -0.43800
N1106       N  0.87672031  0.39359605  0.46141211    -0.44300
N1107       N  0.94518282  0.43273162  0.29403295    -0.41600
N1108       N  0.91891258  0.39915036  0.53420481    -0.43100
H1109       H  0.94842337  0.38971710  0.45012931     0.13100
H1110       H  0.91458308  0.43898596  0.37573034     0.09600
H1111       H  0.92093420  0.45693540  0.45267686     0.10700
H1112       H  0.86072900  0.43466946  0.50266164     0.16500
C1113       C  0.02173087  0.36546868  0.52298810    -0.01700
C1114       C  0.00845825  0.35943260  0.55264890     0.06900
C1115       C  0.99279048  0.35096353  0.53689763    -0.07700
C1116       C  0.98989419  0.34898878  0.49206774     0.04300
C1117       C  0.00296471  0.35559748  0.46183998    -0.14900
C1118       C  0.01895408  0.36350329  0.47822324    -0.08300
C1119       C  0.01025762  0.36271506  0.60009320     0.05200
C1120       C  0.00809550  0.38047213  0.61588154    -0.09400
C1121       C  0.00882892  0.38417525  0.66054894     0.00200
C1122       C  0.01196112  0.36983702  0.69063612     0.00100
C1123       C  0.01464837  0.35210713  0.67422829    -0.12900
C1124       C  0.01371921  0.34847522  0.62956794     0.00600
C1125       C  0.00571982  0.40273809  0.67409483     0.39900
C1126       C  0.01628026  0.33001636  0.61468592     0.36500
C1127       C  0.03830943  0.37377298  0.53789195     0.36200
C1128       C  0.97317847  0.34051802  0.47857536     0.37000
N1129       N  0.00316494  0.41763289  0.68473158    -0.43800
N1130       N  0.01833403  0.31522216  0.60274425    -0.44300
N1131       N  0.95975215  0.33372417  0.46798657    -0.41600
N1132       N  0.05159062  0.38038426  0.55001652    -0.43100
H1133       H  0.02924421  0.36858338  0.45605014     0.13100
H1134       H  0.98256854  0.34627610  0.55978638     0.09600
H1135       H  0.00541629  0.39144792  0.59314092     0.10700
H1136       H  0.01697532  0.34085460  0.69638449     0.16500
C1137       C  0.01267441  0.34526953  0.12675628    -0.01700
C1138       C  0.00532416  0.35826802  0.09811473     0.06900
C1139       C  0.00021045  0.37533951  0.11399694    -0.07700
C1140       C  0.00205802  0.37964685  0.15798735     0.04300
C1141       C  0.00929346  0.36661001  0.18736961    -0.14900
C1142       C  0.01459644  0.34949099  0.17097200    -0.08300
C1143       C  0.00308611  0.35473976  0.05106132     0.05200
C1144       C  0.98561937  0.35194585  0.03451965    -0.09400
C1145       C  0.98258614  0.35122464  0.98954056     0.00200
C1146       C  0.99736096  0.35300105  0.96025249     0.00100
C1147       C  0.01492108  0.35522734  0.97736721    -0.12900
C1148       C  0.01781460  0.35637695  0.02216208     0.00600
C1149       C  0.96406834  0.35017410  0.97473549     0.39900
C1150       C  0.03578937  0.36059343  0.03762836     0.36500
C1151       C  0.01785785  0.32740109  0.11165364     0.36200
C1152       C  0.99561227  0.39731166  0.17173124     0.37000
N1153       N  0.94918658  0.34950276  0.96307339    -0.43800
N1154       N  0.05013449  0.36417522  0.05005738    -0.44300
N1155       N  0.99034783  0.41145271  0.18254636    -0.41600
N1156       N  0.02197548  0.31306508  0.09955354    -0.43100
H1157       H  0.01993122  0.33921925  0.19281192     0.13100
H1158       H  0.99458452  0.38533167  0.09179325     0.09600
H1159       H  0.97421825  0.35115186  0.05684587     0.10700
H1160       H  0.02643195  0.35683867  0.95564243     0.16500
C1161       C  0.93049712  0.40121466  0.17879433    -0.01700
C1162       C  0.91787882  0.41114944  0.20408900     0.06900
C1163       C  0.91403096  0.40503538  0.24646419    -0.07700
C1164       C  0.92392579  0.39081099  0.26527282     0.04300
C1165       C  0.93889985  0.38330201  0.24266800    -0.14900
C1166       C  0.94127560  0.38785119  0.19854038    -0.08300
C1167       C  0.90838174  0.42770720  0.18727876     0.05200
C1168       C  0.88953746  0.42901638  0.19262317    -0.09400
C1169       C  0.87989062  0.44406557  0.17710195     0.00200
C1170       C  0.88901805  0.45797258  0.15357801     0.00100
C1171       C  0.90798542  0.45710589  0.15001166    -0.12900
C1172       C  0.91773057  0.44248556  0.16778566     0.00600
C1173       C  0.86050370  0.44417509  0.18405722     0.39900
C1174       C  0.93729121  0.44337101  0.16687459     0.36500
C1175       C  0.93255771  0.40439711  0.13267180     0.36200
C1176       C  0.91901960  0.38506793  0.30869002     0.37000
N1177       N  0.84499592  0.44416703  0.18997077    -0.43800
N1178       N  0.95296012  0.44418268  0.16610654    -0.44300
N1179       N  0.91491661  0.38034651  0.34328478    -0.41600
N1180       N  0.93408695  0.40690082  0.09566815    -0.43100
H1181       H  0.95219654  0.38162355  0.18004021     0.13100
H1182       H  0.90370897  0.41185318  0.26570171     0.09600
H1183       H  0.88220757  0.41803261  0.20842472     0.10700
H1184       H  0.91524302  0.46792461  0.13338639     0.16500
C1185       C  0.48581524  0.65725315  0.53461709    -0.01700
C1186       C  0.50268921  0.65520226  0.55568284     0.06900
C1187       C  0.51859766  0.65650757  0.53058723    -0.07700
C1188       C  0.51790015  0.65940728  0.48533649     0.04300
C1189       C  0.50095933  0.66175282  0.46429519    -0.14900
C1190       C  0.48512062  0.66087635  0.48982658    -0.08300
C1191       C  0.50395161  0.65096101  0.60329991     0.05200
C1192       C  0.49769018  0.63408014  0.61865399    -0.09400
C1193       C  0.49768447  0.62990795  0.66327479     0.00200
C1194       C  0.50373478  0.64287480  0.69401683     0.00100
C1195       C  0.51097486  0.65938003  0.67833335    -0.12900
C1196       C  0.51119790  0.66344140  0.63353009     0.00600
C1197       C  0.49167793  0.61205851  0.67661340     0.39900
C1198       C  0.51818102  0.68085313  0.61951944     0.36500
C1199       C  0.46886184  0.65510130  0.55759907     0.36200
C1200       C  0.53480481  0.65951154  0.46147608     0.37000
N1201       N  0.48711919  0.59768842  0.68753627    -0.43800
N1202       N  0.52383082  0.69479299  0.60827938    -0.44300
N1203       N  0.54836373  0.65939264  0.44238020    -0.41600
N1204       N  0.45500374  0.65317143  0.57475389    -0.43100
H1205       H  0.47199070  0.66215882  0.47440585     0.13100
H1206       H  0.53161369  0.65469579  0.54624928     0.09600
H1207       H  0.49263534  0.62415735  0.59563501     0.10700
H1208       H  0.51564327  0.66954474  0.70121638     0.16500
C1209       C  0.48556722  0.66120971  0.03834416    -0.01700
C1210       C  0.50223352  0.66795464  0.05340123     0.06900
C1211       C  0.51389592  0.67687179  0.02411233    -0.07700
C1212       C  0.50951547  0.67828639  0.97968150     0.04300
C1213       C  0.49329893  0.67037074  0.96389984    -0.14900
C1214       C  0.48128930  0.66238491  0.99422619    -0.08300
C1215       C  0.50755810  0.66522294  0.09953694     0.05200
C1216       C  0.51294373  0.64778862  0.11303850    -0.09400
C1217       C  0.51496421  0.64361276  0.15730092     0.00200
C1218       C  0.51167957  0.65714942  0.18915358     0.00100
C1219       C  0.50741987  0.67491730  0.17510808    -0.12900
C1220       C  0.50511868  0.67895100  0.13089022     0.00600
C1221       C  0.52004252  0.62524438  0.16883839     0.39900
C1222       C  0.49894734  0.69689408  0.11871201     0.36500
C1223       C  0.47263408  0.65290602  0.06772636     0.36200
C1224       C  0.52184137  0.68798817  0.95139666     0.37000
N1225       N  0.52409099  0.61049697  0.17791933    -0.43800
N1226       N  0.49387923  0.71124924  0.10905116    -0.44300
N1227       N  0.53169798  0.69588592  0.92886704    -0.41600
N1228       N  0.46226518  0.64635239  0.09136966    -0.43100
H1229       H  0.46862504  0.65646159  0.98343599     0.13100
H1230       H  0.52654884  0.68248290  0.03587593     0.09600
H1231       H  0.51481405  0.63718592  0.08890962     0.10700
H1232       H  0.50475673  0.68549526  0.19884721     0.16500
C1233       C  0.23149268  0.51489154  0.47859983    -0.01700
C1234       C  0.23695330  0.52356369  0.51727650     0.06900
C1235       C  0.22390225  0.53288578  0.54215940    -0.07700
C1236       C  0.20570408  0.53380025  0.52884280     0.04300
C1237       C  0.20025745  0.52523533  0.48987616    -0.14900
C1238       C  0.21332165  0.51571232  0.46539863    -0.08300
C1239       C  0.25621437  0.52310514  0.53209678     0.05200
C1240       C  0.26942000  0.53270408  0.50838733    -0.09400
C1241       C  0.28766609  0.53273486  0.52132285     0.00200
C1242       C  0.29306904  0.52300180  0.55893589     0.00100
C1243       C  0.27982285  0.51310946  0.58211501    -0.12900
C1244       C  0.26157622  0.51314639  0.56914291     0.00600
C1245       C  0.30061089  0.54230191  0.49433633     0.39900
C1246       C  0.24863289  0.50254004  0.59377490     0.36500
C1247       C  0.24422547  0.50467591  0.45248234     0.36200
C1248       C  0.19274559  0.54276694  0.55688078     0.37000
N1249       N  0.31098497  0.54992220  0.47261068    -0.43800
N1250       N  0.23824628  0.49401020  0.61341876    -0.44300
N1251       N  0.18232456  0.54984070  0.57947111    -0.41600
N1252       N  0.25441715  0.49645047  0.43159059    -0.43100
H1253       H  0.20933721  0.50892604  0.43564677     0.13100
H1254       H  0.22795545  0.53942216  0.57216707     0.09600
H1255       H  0.26543337  0.54019456  0.47954692     0.10700
H1256       H  0.28368394  0.50543418  0.61076876     0.16500
C1257       C  0.41414507  0.58627792  0.66285067    -0.01700
C1258       C  0.40321077  0.60138374  0.67439466     0.06900
C1259       C  0.38449908  0.60040173  0.66757337    -0.07700
C1260       C  0.37651305  0.58452794  0.65153716     0.04300
C1261       C  0.38737201  0.56918258  0.64095058    -0.14900
C1262       C  0.40621986  0.57046692  0.64556203    -0.08300
C1263       C  0.41077161  0.61752963  0.69744429     0.05200
C1264       C  0.42446856  0.62807587  0.67771994    -0.09400
C1265       C  0.43432921  0.64078125  0.70218736     0.00200
C1266       C  0.43052420  0.64297239  0.74672053     0.00100
C1267       C  0.41525665  0.63437599  0.76459553    -0.12900
C1268       C  0.40552282  0.62153530  0.74067508     0.00600
C1269       C  0.44958204  0.65008546  0.68280375     0.39900
C1270       C  0.39172702  0.61113461  0.76310754     0.36500
C1271       C  0.43336346  0.58622139  0.67106964     0.36200
C1272       C  0.35706676  0.58452077  0.64593911     0.37000
N1273       N  0.46184609  0.65787877  0.66839814    -0.43800
N1274       N  0.38074104  0.60281849  0.78134493    -0.44300
N1275       N  0.34148572  0.58452665  0.64165040    -0.41600
N1276       N  0.44875985  0.58611622  0.67795857    -0.43100
H1277       H  0.41466361  0.55887204  0.63737991     0.13100
H1278       H  0.37602339  0.61195676  0.67598505     0.09600
H1279       H  0.42826503  0.62549411  0.64417647     0.10700
H1280       H  0.41247861  0.63579837  0.79914070     0.16500
C1281       C  0.40183813  0.56511695  0.44959009    -0.01700
C1282       C  0.40206082  0.58427855  0.45153156     0.06900
C1283       C  0.38778570  0.59322762  0.47354810    -0.07700
C1284       C  0.37393535  0.58330834  0.49487140     0.04300
C1285       C  0.37389878  0.56407823  0.49312113    -0.14900
C1286       C  0.38773085  0.55539958  0.46895043    -0.08300
C1287       C  0.41726973  0.59476738  0.43091224     0.05200
C1288       C  0.42167893  0.59138774  0.38714687    -0.09400
C1289       C  0.43697786  0.59920406  0.36744237     0.00200
C1290       C  0.44780561  0.61172963  0.39080687     0.00100
C1291       C  0.44323048  0.61528870  0.43456235    -0.12900
C1292       C  0.42837043  0.60675136  0.45481273     0.00600
C1293       C  0.44106395  0.59397458  0.32322110     0.39900
C1294       C  0.42521253  0.61002917  0.50051922     0.36500
C1295       C  0.41666503  0.55487295  0.43077113     0.36200
C1296       C  0.36006941  0.59314768  0.51824918     0.37000
N1297       N  0.44440727  0.58955141  0.28798003    -0.43800
N1298       N  0.42271395  0.61260216  0.53718254    -0.44300
N1299       N  0.34893450  0.60108136  0.53689701    -0.41600
N1300       N  0.42856992  0.54666297  0.41593718    -0.43100
H1301       H  0.38837092  0.54065702  0.46736470     0.13100
H1302       H  0.38764431  0.60798233  0.47476552     0.09600
H1303       H  0.41328563  0.58218380  0.36841581     0.10700
H1304       H  0.45134119  0.62476320  0.45322712     0.16500
C1305       C  0.26013021  0.51180281  0.07303476    -0.01700
C1306       C  0.25533944  0.52403689  0.03968395     0.06900
C1307       C  0.26862326  0.53547023  0.02176765    -0.07700
C1308       C  0.28659621  0.53478314  0.03641012     0.04300
C1309       C  0.29148218  0.52253943  0.07005967    -0.14900
C1310       C  0.27805311  0.51113529  0.08792277    -0.08300
C1311       C  0.23669883  0.52449570  0.02171038     0.05200
C1312       C  0.22401033  0.53676451  0.03886895    -0.09400
C1313       C  0.20614201  0.53723303  0.02337067     0.00200
C1314       C  0.20077498  0.52537741  0.98942172     0.00100
C1315       C  0.21365633  0.51310600  0.97241950    -0.12900
C1316       C  0.23142449  0.51256142  0.98832471     0.00600
C1317       C  0.19347741  0.54937288  0.04450717     0.39900
C1318       C  0.24401968  0.49949162  0.97036732     0.36500
C1319       C  0.24688882  0.49965111  0.09198922     0.36200
C1320       C  0.29989974  0.54594571  0.01436456     0.37000
N1321       N  0.18330440  0.55902991  0.06160690    -0.43800
N1322       N  0.25415696  0.48900316  0.95622259    -0.44300
N1323       N  0.31059508  0.55478184  0.99652716    -0.41600
N1324       N  0.23626252  0.48989716  0.10708225    -0.43100
H1325       H  0.28155907  0.50162565  0.11354740     0.13100
H1326       H  0.26500406  0.54465927  0.99556553     0.09600
H1327       H  0.22801514  0.54577781  0.06502207     0.10700
H1328       H  0.20984357  0.50380555  0.94669299     0.16500
C1329       C  0.38877971  0.59051437  0.18438446    -0.01700
C1330       C  0.40770105  0.59017722  0.19084625     0.06900
C1331       C  0.41718751  0.57380477  0.18318423    -0.07700
C1332       C  0.40824663  0.55827489  0.16758554     0.04300
C1333       C  0.38932417  0.55864037  0.16200035    -0.14900
C1334       C  0.37976799  0.57473444  0.17115172    -0.08300
C1335       C  0.41781213  0.60662256  0.20582554     0.05200
C1336       C  0.41247023  0.61539533  0.24443208    -0.09400
C1337       C  0.42309127  0.62922178  0.26280963     0.00200
C1338       C  0.43970625  0.63424305  0.24285826     0.00100
C1339       C  0.44388358  0.62683961  0.20176997    -0.12900
C1340       C  0.43326603  0.61309210  0.18345278     0.00600
C1341       C  0.41719349  0.63689817  0.30368827     0.39900
C1342       C  0.43903157  0.60531186  0.14255464     0.36500
C1343       C  0.37845187  0.60714151  0.18825301     0.36200
C1344       C  0.41870415  0.54220318  0.15744144     0.37000
N1345       N  0.41239822  0.64303170  0.33642187    -0.43800
N1346       N  0.44375571  0.59898029  0.10997989    -0.44300
N1347       N  0.42709559  0.52934912  0.14905872    -0.41600
N1348       N  0.37016929  0.62047821  0.19102613    -0.43100
H1349       H  0.36527146  0.57529043  0.16546290     0.13100
H1350       H  0.43168453  0.57324825  0.18867430     0.09600
H1351       H  0.40049075  0.61070969  0.26170075     0.10700
H1352       H  0.45630331  0.63079385  0.18523850     0.16500
C1353       C  0.36007131  0.50242688  0.88320494    -0.01700
C1354       C  0.34266680  0.50530268  0.86563775     0.06900
C1355       C  0.32751866  0.50356109  0.89312908    -0.07700
C1356       C  0.32950120  0.50012196  0.93784555     0.04300
C1357       C  0.34707775  0.49861342  0.95623052    -0.14900
C1358       C  0.36214375  0.49936014  0.92794813    -0.08300
C1359       C  0.33990762  0.50924963  0.81841713     0.05200
C1360       C  0.33053225  0.49649545  0.79305383    -0.09400
C1361       C  0.32888128  0.49881460  0.74794767     0.00200
C1362       C  0.33614289  0.51444840  0.72754874     0.00100
C1363       C  0.34458909  0.52770301  0.75310475    -0.12900
C1364       C  0.34677693  0.52514183  0.79800572     0.00600
C1365       C  0.31997563  0.48480846  0.72303600     0.39900
C1366       C  0.35683664  0.53874307  0.82152733     0.36500
C1367       C  0.37601935  0.50220520  0.85583097     0.36200
C1368       C  0.31317659  0.49840152  0.96362615     0.37000
N1369       N  0.31288795  0.47359653  0.70292500    -0.43800
N1370       N  0.36527748  0.54979302  0.83895373    -0.44300
N1371       N  0.29999754  0.49683835  0.98385554    -0.41600
N1372       N  0.38879724  0.50197337  0.83386617    -0.43100
H1373       H  0.37571677  0.49782662  0.94083978     0.13100
H1374       H  0.31404559  0.50512516  0.87961413     0.09600
H1375       H  0.32511988  0.48432044  0.80829442     0.10700
H1376       H  0.35051117  0.53956795  0.73751402     0.16500
C1377       C  0.34141147  0.51414814  0.30543885    -0.01700
C1378       C  0.34213407  0.49636840  0.32260036     0.06900
C1379       C  0.33965652  0.48149578  0.29484653    -0.07700
C1380       C  0.33729250  0.48409719  0.24999822     0.04300
C1381       C  0.33758232  0.50190577  0.23217354    -0.14900
C1382       C  0.33918347  0.51679087  0.26064804    -0.08300
C1383       C  0.34562985  0.49322732  0.36949580     0.05200
C1384       C  0.33094037  0.49062012  0.39771792    -0.09400
C1385       C  0.33342033  0.49016811  0.44287630     0.00200
C1386       C  0.35107814  0.49231873  0.46063862     0.00100
C1387       C  0.36587242  0.49379575  0.43172480    -0.12900
C1388       C  0.36326522  0.49431655  0.38662822     0.00600
C1389       C  0.31736883  0.48835209  0.46964843     0.39900
C1390       C  0.37881326  0.49661922  0.35846895     0.36500
C1391       C  0.34312237  0.52985535  0.33331931     0.36200
C1392       C  0.33396208  0.46827882  0.22350108     0.37000
N1393       N  0.30442699  0.48693796  0.49081633    -0.43800
N1394       N  0.39124704  0.49845777  0.33580417    -0.44300
N1395       N  0.33102590  0.45552024  0.20269554    -0.41600
N1396       N  0.34444934  0.54236715  0.35590161    -0.43100
H1397       H  0.33930807  0.53054490  0.24779545     0.13100
H1398       H  0.33973007  0.46782716  0.30823317     0.09600
H1399       H  0.31736999  0.48969724  0.38442667     0.10700
H1400       H  0.37949252  0.49537589  0.44428405     0.16500
C1401       C  0.40974895  0.61809223  0.94887910    -0.01700
C1402       C  0.40993180  0.59920793  0.95614289     0.06900
C1403       C  0.42510703  0.58902504  0.94266600    -0.07700
C1404       C  0.43982212  0.59735739  0.92115350     0.04300
C1405       C  0.43936425  0.61626379  0.91235435    -0.14900
C1406       C  0.42434903  0.62639925  0.92766423    -0.08300
C1407       C  0.39432106  0.58979267  0.97713430     0.05200
C1408       C  0.38376825  0.57781255  0.95232192    -0.09400
C1409       C  0.37015565  0.56729742  0.97198922     0.00200
C1410       C  0.36725143  0.56835073  0.01731780     0.00100
C1411       C  0.37658709  0.58160836  0.04123652    -0.12900
C1412       C  0.39008427  0.59226030  0.02157664     0.00600
C1413       C  0.35968058  0.55489617  0.94580948     0.39900
C1414       C  0.40011480  0.60481728  0.04830146     0.36500
C1415       C  0.39437913  0.62915496  0.96130607     0.36200
C1416       C  0.45488166  0.58609465  0.90785726     0.37000
N1417       N  0.35089318  0.54477902  0.92630402    -0.43800
N1418       N  0.40797999  0.61503368  0.06969735    -0.44300
N1419       N  0.46696725  0.57700777  0.89746994    -0.41600
N1420       N  0.38207684  0.63800998  0.97135329    -0.43100
H1421       H  0.42364145  0.64095284  0.92193614     0.13100
H1422       H  0.42536257  0.57447147  0.94865940     0.09600
H1423       H  0.38651637  0.57631419  0.91783655     0.10700
H1424       H  0.37451922  0.58256211  0.07609034     0.16500
C1425       C  0.72673848  0.48484110  0.00298425    -0.01700
C1426       C  0.73945052  0.49839813  0.99147756     0.06900
C1427       C  0.73409025  0.51235707  0.96303571    -0.07700
C1428       C  0.71628651  0.51337830  0.94735948     0.04300
C1429       C  0.70334796  0.50007767  0.95986624    -0.14900
C1430       C  0.70897222  0.48575234  0.98713438    -0.08300
C1431       C  0.75828643  0.49843388  0.00913352     0.05200
C1432       C  0.76965407  0.48340548  0.00173989    -0.09400
C1433       C  0.78741928  0.48291972  0.01792491     0.00200
C1434       C  0.79430109  0.49788217  0.04186857     0.00100
C1435       C  0.78282658  0.51294706  0.04892447    -0.12900
C1436       C  0.76505859  0.51331359  0.03304332     0.00600
C1437       C  0.79815047  0.46690525  0.00890990     0.39900
C1438       C  0.75391256  0.52899655  0.04261682     0.36500
C1439       C  0.73136601  0.47017946  0.03224866     0.36200
C1440       C  0.71188831  0.52813851  0.91816999     0.37000
N1441       N  0.80667450  0.45401785  0.00165706    -0.43800
N1442       N  0.74500282  0.54158587  0.05016894    -0.44300
N1443       N  0.70845019  0.53999903  0.89478263    -0.41600
N1444       N  0.73505992  0.45836969  0.05554711    -0.43100
H1445       H  0.69931461  0.47544432  0.99725291     0.13100
H1446       H  0.74387623  0.52260291  0.95324044     0.09600
H1447       H  0.76462983  0.47199748  0.98298490     0.10700
H1448       H  0.78766134  0.52454822  0.06726836     0.16500
C1449       C  0.54485087  0.58088005  0.86329630    -0.01700
C1450       C  0.55513123  0.58485820  0.90056185     0.06900
C1451       C  0.55152105  0.60086740  0.92373166    -0.07700
C1452       C  0.53804537  0.61307162  0.90989822     0.04300
C1453       C  0.52790585  0.60935839  0.87183454    -0.14900
C1454       C  0.53137936  0.59301694  0.84937078    -0.08300
C1455       C  0.56989701  0.57254668  0.91525312     0.05200
C1456       C  0.58756778  0.57540264  0.89964773    -0.09400
C1457       C  0.60168704  0.56343403  0.91054455     0.00200
C1458       C  0.59814028  0.54813988  0.93726267     0.00100
C1459       C  0.58044631  0.54549361  0.95331136    -0.12900
C1460       C  0.56642490  0.55761820  0.94287736     0.00600
C1461       C  0.61939230  0.56660944  0.89181740     0.39900
C1462       C  0.54856272  0.55446194  0.96071186     0.36500
C1463       C  0.54811758  0.56451635  0.83850204     0.36200
C1464       C  0.53467545  0.62896103  0.93625025     0.37000
N1465       N  0.63354682  0.56915811  0.87660250    -0.43800
N1466       N  0.53427083  0.55196633  0.97520880    -0.44300
N1467       N  0.53208290  0.64160371  0.95778702    -0.41600
N1468       N  0.55078565  0.55139846  0.81868328    -0.43100
H1469       H  0.52380317  0.58984097  0.82021573     0.13100
H1470       H  0.55929016  0.60383542  0.95273400     0.09600
H1471       H  0.59024169  0.58682784  0.87818572     0.10700
H1472       H  0.57755919  0.53390733  0.97411747     0.16500
C1473       C  0.72518406  0.50290939  0.54213098    -0.01700
C1474       C  0.73949646  0.49756752  0.51431769     0.06900
C1475       C  0.73564164  0.49180114  0.47201805    -0.07700
C1476       C  0.71786332  0.49167434  0.45668269     0.04300
C1477       C  0.70351063  0.49742672  0.48407092    -0.14900
C1478       C  0.70735659  0.50301445  0.52667038    -0.08300
C1479       C  0.75870592  0.49842764  0.52782247     0.05200
C1480       C  0.76889634  0.48232947  0.52915626    -0.09400
C1481       C  0.78729529  0.48261956  0.54013155     0.00200
C1482       C  0.79573422  0.49934475  0.55089109     0.00100
C1483       C  0.78546465  0.51548513  0.54844776    -0.12900
C1484       C  0.76721976  0.51516819  0.53649332     0.00600
C1485       C  0.79699760  0.46553657  0.53976200     0.39900
C1486       C  0.75770215  0.53224104  0.53154120     0.36500
C1487       C  0.72846129  0.50802367  0.58672512     0.36200
C1488       C  0.71491241  0.48648512  0.41197327     0.37000
N1489       N  0.80475928  0.45183814  0.53908241    -0.43800
N1490       N  0.75003569  0.54587887  0.52733466    -0.44300
N1491       N  0.71257190  0.48237227  0.37612826    -0.41600
N1492       N  0.73112218  0.51210497  0.62245893    -0.43100
H1493       H  0.69640654  0.50726932  0.54803306     0.13100
H1494       H  0.74665589  0.48778454  0.45055402     0.09600
H1495       H  0.76243662  0.46949435  0.52133386     0.10700
H1496       H  0.79174499  0.52850589  0.55523527     0.16500
C1497       C  0.54634754  0.57828814  0.36238608    -0.01700
C1498       C  0.56480102  0.58312428  0.36045712     0.06900
C1499       C  0.56964464  0.60057587  0.34630383    -0.07700
C1500       C  0.55636303  0.61349951  0.33571210     0.04300
C1501       C  0.53767595  0.60906586  0.33992456    -0.14900
C1502       C  0.53301247  0.59121449  0.35255442    -0.08300
C1503       C  0.57911781  0.57049760  0.37583807     0.05200
C1504       C  0.59016658  0.56141392  0.34561647    -0.09400
C1505       C  0.60304381  0.54859068  0.35947777     0.00200
C1506       C  0.60515444  0.54496522  0.40428677     0.00100
C1507       C  0.59427706  0.55434960  0.43437830    -0.12900
C1508       C  0.58138325  0.56703761  0.42056567     0.00600
C1509       C  0.61267297  0.53820231  0.32707642     0.39900
C1510       C  0.57052441  0.57631390  0.45283428     0.36500
C1511       C  0.54083886  0.56005519  0.37411088     0.36200
C1512       C  0.56250934  0.63103226  0.32030118     0.37000
N1513       N  0.62004588  0.52964452  0.30090450    -0.43800
N1514       N  0.56177624  0.58376251  0.47857964    -0.44300
N1515       N  0.56751782  0.64502264  0.30772357    -0.41600
N1516       N  0.53650008  0.54539437  0.38324123    -0.43100
H1517       H  0.51887942  0.58727749  0.35502263     0.13100
H1518       H  0.58388066  0.60420102  0.34423269     0.09600
H1519       H  0.58828468  0.56389523  0.31115289     0.10700
H1520       H  0.59577744  0.55165453  0.46887197     0.16500
C1521       C  0.63783628  0.53818784  0.64368495    -0.01700
C1522       C  0.64702348  0.52469673  0.66821151     0.06900
C1523       C  0.65359932  0.50925923  0.64644150    -0.07700
C1524       C  0.65110249  0.50696975  0.60178169     0.04300
C1525       C  0.64106421  0.51985500  0.57770176    -0.14900
C1526       C  0.63488352  0.53564814  0.59878191    -0.08300
C1527       C  0.64919079  0.52552039  0.71668980     0.05200
C1528       C  0.63375589  0.52756151  0.74322370    -0.09400
C1529       C  0.63478881  0.52547013  0.78855137     0.00200
C1530       C  0.65135868  0.52038600  0.80812292     0.00100
C1531       C  0.66692283  0.51901324  0.78199542    -0.12900
C1532       C  0.66606367  0.52201094  0.73692131     0.00600
C1533       C  0.61836984  0.52751389  0.81387571     0.39900
C1534       C  0.68274058  0.52165598  0.71216158     0.36500
C1535       C  0.63152095  0.55479837  0.66365281     0.36200
C1536       C  0.65979077  0.49158580  0.58129558     0.37000
N1537       N  0.60514549  0.52909175  0.83391826    -0.43800
N1538       N  0.69610735  0.52148710  0.69231557    -0.44300
N1539       N  0.66718588  0.47929130  0.56581507    -0.41600
N1540       N  0.62645859  0.56812938  0.67963767    -0.43100
H1541       H  0.62747523  0.54580705  0.58041955     0.13100
H1542       H  0.66064570  0.49875777  0.66455092     0.09600
H1543       H  0.62068401  0.53008788  0.72840354     0.10700
H1544       H  0.67981169  0.51570002  0.79689464     0.16500
C1545       C  0.65986891  0.52847543  0.25224053    -0.01700
C1546       C  0.66353118  0.51485411  0.22119242     0.06900
C1547       C  0.67011824  0.49793299  0.23532584    -0.07700
C1548       C  0.67165730  0.49398705  0.27989290     0.04300
C1549       C  0.66659302  0.50716251  0.31120115    -0.14900
C1550       C  0.66168651  0.52464840  0.29672526    -0.08300
C1551       C  0.65912815  0.51750758  0.17436604     0.05200
C1552       C  0.67308867  0.52010221  0.14392584    -0.09400
C1553       C  0.66929869  0.52209477  0.09936826     0.00200
C1554       C  0.65106554  0.52154158  0.08447146     0.00100
C1555       C  0.63718195  0.51920783  0.11555817    -0.12900
C1556       C  0.64104882  0.51705421  0.15980512     0.00600
C1557       C  0.68453660  0.52413303  0.07011221     0.39900
C1558       C  0.62622374  0.51350514  0.18942342     0.36500
C1559       C  0.65320714  0.54614096  0.23922531     0.36200
C1560       C  0.67874424  0.47645498  0.29251131     0.37000
N1561       N  0.69690323  0.52576851  0.04713786    -0.43800
N1562       N  0.61427167  0.51051264  0.21285419    -0.44300
N1563       N  0.68471901  0.46246992  0.30226846    -0.41600
N1564       N  0.64769526  0.56022837  0.22875602    -0.43100
H1565       H  0.65794974  0.53499729  0.32021708     0.13100
H1566       H  0.67338210  0.48754784  0.21152736     0.09600
H1567       H  0.68702766  0.52036118  0.15500821     0.10700
H1568       H  0.62316442  0.51848479  0.10524740     0.16500
C1569       C  0.45347748  0.44097038  0.68099847    -0.01700
C1570       C  0.43714901  0.43602808  0.66031946     0.06900
C1571       C  0.43456540  0.41773877  0.64854411    -0.07700
C1572       C  0.44792591  0.40452889  0.65663244     0.04300
C1573       C  0.46452927  0.40958378  0.67613131    -0.14900
C1574       C  0.46700095  0.42788136  0.68821092    -0.08300
C1575       C  0.42313300  0.44990577  0.64852867     0.05200
C1576       C  0.42810108  0.46438740  0.62113019    -0.09400
C1577       C  0.41546512  0.47759682  0.60835818     0.00200
C1578       C  0.39722172  0.47643669  0.62270719     0.00100
C1579       C  0.39218931  0.46182715  0.64979374    -0.12900
C1580       C  0.40495597  0.44872776  0.66301471     0.00600
C1581       C  0.42149887  0.49169022  0.57883895     0.39900
C1582       C  0.39920246  0.43450895  0.69243665     0.36500
C1583       C  0.45644126  0.45929680  0.69634189     0.36200
C1584       C  0.44439599  0.38602431  0.64336486     0.37000
N1585       N  0.42637772  0.50293988  0.55512962    -0.43800
N1586       N  0.39460598  0.42312932  0.71610550    -0.44300
N1587       N  0.44155646  0.37117235  0.63289898    -0.41600
N1588       N  0.45875490  0.47396723  0.70880645    -0.43100
H1589       H  0.47943909  0.43195208  0.70415264     0.13100
H1590       H  0.42214985  0.41381097  0.63231324     0.09600
H1591       H  0.44192950  0.46523972  0.60914732     0.10700
H1592       H  0.37829437  0.46077985  0.66118907     0.16500
C1593       C  0.61411888  0.44422127  0.59915056    -0.01700
C1594       C  0.60575171  0.42841737  0.58258006     0.06900
C1595       C  0.61191593  0.42132488  0.54269876    -0.07700
C1596       C  0.62487985  0.43061552  0.51767853     0.04300
C1597       C  0.63177630  0.44742714  0.53217094    -0.14900
C1598       C  0.62695509  0.45357164  0.57386567    -0.08300
C1599       C  0.58941846  0.42017462  0.60373424     0.05200
C1600       C  0.57393585  0.43104571  0.61129684    -0.09400
C1601       C  0.55785746  0.42350356  0.62822741     0.00200
C1602       C  0.55700052  0.40473170  0.63700763     0.00100
C1603       C  0.57246313  0.39392819  0.62968734    -0.12900
C1604       C  0.58855490  0.40143184  0.61349709     0.00600
C1605       C  0.54218598  0.43500799  0.63408780     0.39900
C1606       C  0.60401316  0.38960144  0.60746629     0.36500
C1607       C  0.60892149  0.45176676  0.64071965     0.36200
C1608       C  0.62918144  0.42387609  0.47473241     0.37000
N1609       N  0.52956489  0.44419238  0.63858064    -0.43800
N1610       N  0.61636600  0.38010355  0.60239341    -0.44300
N1611       N  0.63260126  0.41852841  0.44027916    -0.41600
N1612       N  0.60470483  0.45787334  0.67392894    -0.43100
H1613       H  0.63163618  0.46676879  0.58478126     0.13100
H1614       H  0.60559801  0.40922356  0.52944890     0.09600
H1615       H  0.57426688  0.44538760  0.60295403     0.10700
H1616       H  0.57200699  0.37948188  0.63704923     0.16500
C1617       C  0.58577835  0.40562196  0.78227990    -0.01700
C1618       C  0.58000780  0.41334624  0.82225366     0.06900
C1619       C  0.56462500  0.40600096  0.84274280    -0.07700
C1620       C  0.55494038  0.39164670  0.82448920     0.04300
C1621       C  0.55956746  0.38510410  0.78254635    -0.14900
C1622       C  0.57547007  0.39177160  0.76267278    -0.08300
C1623       C  0.58904307  0.42945150  0.84292484     0.05200
C1624       C  0.59282605  0.44509441  0.81798259    -0.09400
C1625       C  0.60068205  0.46059694  0.83679092     0.00200
C1626       C  0.60384929  0.46115312  0.88204280     0.00100
C1627       C  0.59921179  0.44590761  0.90726906    -0.12900
C1628       C  0.59259987  0.42997453  0.88812289     0.00600
C1629       C  0.60517593  0.47574069  0.80884216     0.39900
C1630       C  0.59030197  0.41407263  0.91532323     0.36500
C1631       C  0.60187200  0.41193452  0.75999969     0.36200
C1632       C  0.53971704  0.38459729  0.84906786     0.37000
N1633       N  0.60877055  0.48768462  0.78581054    -0.43800
N1634       N  0.58823247  0.40118124  0.93645870    -0.44300
N1635       N  0.52754526  0.37906581  0.86894671    -0.41600
N1636       N  0.61469423  0.41702231  0.74186967    -0.43100
H1637       H  0.57926821  0.38700831  0.73054332     0.13100
H1638       H  0.55968203  0.41189149  0.87283933     0.09600
H1639       H  0.58963382  0.44526007  0.78360862     0.10700
H1640       H  0.60171559  0.44606944  0.94193042     0.16500
C1641       C  0.43796272  0.41360432  0.11618644    -0.01700
C1642       C  0.43693712  0.43121340  0.13445505     0.06900
C1643       C  0.45007970  0.43655997  0.16476941    -0.07700
C1644       C  0.46421646  0.42485089  0.17646903     0.04300
C1645       C  0.46525861  0.40728847  0.15815573    -0.14900
C1646       C  0.45197144  0.40174715  0.12846146    -0.08300
C1647       C  0.42229996  0.44432371  0.12289401     0.05200
C1648       C  0.40408930  0.43969195  0.13062576    -0.09400
C1649       C  0.39006190  0.45213724  0.12229547     0.00200
C1650       C  0.39422125  0.46985765  0.10716307     0.00100
C1651       C  0.41247508  0.47428733  0.09884987    -0.12900
C1652       C  0.42638028  0.46170346  0.10596237     0.00600
C1653       C  0.37166301  0.44634390  0.13017169     0.39900
C1654       C  0.44470622  0.46679816  0.09451199     0.36500
C1655       C  0.42513059  0.40760594  0.08394055     0.36200
C1656       C  0.47699699  0.43085052  0.20887641     0.37000
N1657       N  0.35695362  0.44143870  0.13604790    -0.43800
N1658       N  0.45937688  0.47084860  0.08516519    -0.44300
N1659       N  0.48719602  0.43560794  0.23497971    -0.41600
N1660       N  0.41483548  0.40283270  0.05807153    -0.43100
H1661       H  0.45270991  0.38824354  0.11437058     0.13100
H1662       H  0.44920022  0.44991725  0.17959215     0.09600
H1663       H  0.40083664  0.42635298  0.14368877     0.10700
H1664       H  0.41594778  0.48762523  0.08609208     0.16500
C1665       C  0.58476625  0.39836492  0.07575917    -0.01700
C1666       C  0.58593319  0.41758603  0.07438532     0.06900
C1667       C  0.57055349  0.42770969  0.08729367    -0.07700
C1668       C  0.55514747  0.41923394  0.10520682     0.04300
C1669       C  0.55435043  0.40009593  0.10824575    -0.14900
C1670       C  0.56892693  0.38989393  0.09135632    -0.08300
C1671       C  0.60285031  0.42755590  0.06026303     0.05200
C1672       C  0.61188073  0.42285705  0.02136206    -0.09400
C1673       C  0.62585407  0.43378002  0.00410159     0.00200
C1674       C  0.63028310  0.45042419  0.02442389     0.00100
C1675       C  0.62305736  0.45372761  0.06618472    -0.12900
C1676       C  0.60965626  0.44246380  0.08423815     0.00600
C1677       C  0.63477324  0.42796531  0.96461028     0.39900
C1678       C  0.60282835  0.44683653  0.12708429     0.36500
C1679       C  0.60002799  0.38693842  0.06465073     0.36200
C1680       C  0.54034488  0.43048508  0.12019759     0.37000
N1681       N  0.64202354  0.42323040  0.93314534    -0.43800
N1682       N  0.59732296  0.45035637  0.16135741    -0.44300
N1683       N  0.52847627  0.43948864  0.13229914    -0.41600
N1684       N  0.61225710  0.37776158  0.05580792    -0.43100
H1685       H  0.56856116  0.37515224  0.09347590     0.13100
H1686       H  0.57075716  0.44242734  0.08455076     0.09600
H1687       H  0.60755928  0.41105884  0.00326322     0.10700
H1688       H  0.62693218  0.46591319  0.08372446     0.16500
C1689       C  0.56679426  0.40504696  0.32637864    -0.01700
C1690       C  0.57999255  0.41434242  0.30148805     0.06900
C1691       C  0.58547331  0.40687018  0.26144858    -0.07700
C1692       C  0.57671471  0.39162856  0.24415171     0.04300
C1693       C  0.56148343  0.38428181  0.26583370    -0.14900
C1694       C  0.55751960  0.39034905  0.30821226    -0.08300
C1695       C  0.58935935  0.43085231  0.31806844     0.05200
C1696       C  0.60825783  0.43058926  0.31938271    -0.09400
C1697       C  0.61788290  0.44469380  0.33855698     0.00200
C1698       C  0.60852026  0.45930651  0.35910343     0.00100
C1699       C  0.58964015  0.46046553  0.35423899    -0.12900
C1700       C  0.58005115  0.44652304  0.33310053     0.00600
C1701       C  0.63741882  0.44314127  0.33795116     0.39900
C1702       C  0.56076249  0.44860542  0.32709631     0.36500
C1703       C  0.56242928  0.41029939  0.37044189     0.36200
C1704       C  0.58352000  0.38406413  0.20405788     0.37000
N1705       N  0.65302595  0.44159015  0.33773973    -0.43800
N1706       N  0.54530458  0.45027490  0.32216460    -0.44300
N1707       N  0.58947006  0.37774815  0.17266124    -0.41600
N1708       N  0.55889101  0.41446788  0.40575035    -0.43100
H1709       H  0.54628320  0.38436683  0.32610321     0.13100
H1710       H  0.59642329  0.41316847  0.24319522     0.09600
H1711       H  0.61558974  0.41892764  0.30664807     0.10700
H1712       H  0.58229368  0.47179277  0.36846047     0.16500
C1713       C  0.49352867  0.33848866  0.88510930    -0.01700
C1714       C  0.48810376  0.35138676  0.91650734     0.06900
C1715       C  0.48148385  0.36835722  0.90248129    -0.07700
C1716       C  0.48105496  0.37290569  0.85813637     0.04300
C1717       C  0.48736037  0.36032203  0.82681976    -0.14900
C1718       C  0.49301633  0.34297897  0.84088060    -0.08300
C1719       C  0.49087206  0.34816753  0.96389764     0.05200
C1720       C  0.50854359  0.34504358  0.97898995    -0.09400
C1721       C  0.51227612  0.34386497  0.02355506     0.00200
C1722       C  0.49808619  0.34597691  0.05434450     0.00100
C1723       C  0.48025981  0.34828328  0.03893209    -0.12900
C1724       C  0.47658186  0.34941978  0.99434694     0.00600
C1725       C  0.53096058  0.34157444  0.03627202     0.39900
C1726       C  0.45805476  0.35209973  0.98076779     0.36500
C1727       C  0.50007548  0.32068426  0.89747673     0.36200
C1728       C  0.47411740  0.39054199  0.84580143     0.37000
N1729       N  0.54597418  0.33974982  0.04616506    -0.43800
N1730       N  0.44318251  0.35429719  0.97012595    -0.44300
N1731       N  0.46849023  0.40466311  0.83594488    -0.41600
N1732       N  0.50541641  0.30644961  0.90732650    -0.43100
H1733       H  0.49788117  0.33310539  0.81736405     0.13100
H1734       H  0.47726841  0.37835923  0.92637548     0.09600
H1735       H  0.51963472  0.34423329  0.95579186     0.10700
H1736       H  0.46913136  0.34973892  0.06182689     0.16500
C1737       C  0.48567924  0.34971553  0.38884785    -0.01700
C1738       C  0.49311913  0.36327512  0.41573922     0.06900
C1739       C  0.49839557  0.37988804  0.39710239    -0.07700
C1740       C  0.49698529  0.38292616  0.35211578     0.04300
C1741       C  0.49053310  0.36890125  0.32443800    -0.14900
C1742       C  0.48458050  0.35253085  0.34377516    -0.08300
C1743       C  0.49579910  0.36031012  0.46326426     0.05200
C1744       C  0.51326657  0.35663667  0.47898233    -0.09400
C1745       C  0.51647974  0.35432089  0.52372596     0.00200
C1746       C  0.50193595  0.35561170  0.55390312     0.00100
C1747       C  0.48440791  0.35909139  0.53759559    -0.12900
C1748       C  0.48129772  0.36150821  0.49300820     0.00600
C1749       C  0.53494903  0.35147670  0.53750689     0.39900
C1750       C  0.46319668  0.36585330  0.47862216     0.36500
C1751       C  0.47949168  0.33261386  0.40670483     0.36200
C1752       C  0.50278512  0.40041175  0.33563439     0.37000
N1753       N  0.54979415  0.34926393  0.54835932    -0.43800
N1754       N  0.44870450  0.36940774  0.46709909    -0.44300
N1755       N  0.50737006  0.41449411  0.32271423    -0.41600
N1756       N  0.47443650  0.31894509  0.42105851    -0.43100
H1757       H  0.47940649  0.34166073  0.32356448     0.13100
H1758       H  0.50382923  0.39047773  0.41782771     0.09600
H1759       H  0.52449497  0.35583055  0.45616587     0.10700
H1760       H  0.47302244  0.36031163  0.55983293     0.16500
C1761       C  0.87302225  0.00251329  0.65838750    -0.01700
C1762       C  0.85599172  0.99890068  0.67736782     0.06900
C1763       C  0.84157716  0.99345416  0.65095447    -0.07700
C1764       C  0.84356375  0.99274291  0.60566181     0.04300
C1765       C  0.86029965  0.99774361  0.58609955    -0.14900
C1766       C  0.87505920  0.00188645  0.61321438    -0.08300
C1767       C  0.85262722  0.00227184  0.72415475     0.05200
C1768       C  0.85259898  0.02030705  0.73893803    -0.09400
C1769       C  0.85025435  0.02430198  0.78306077     0.00200
C1770       C  0.84816138  0.00997547  0.81348361     0.00100
C1771       C  0.84766006  0.99191060  0.79825167    -0.12900
C1772       C  0.84965502  0.98800113  0.75391821     0.00600
C1773       C  0.85093543  0.04316774  0.79604161     0.39900
C1774       C  0.84910404  0.96927495  0.73980241     0.36500
C1775       C  0.88851114  0.00725710  0.68461282     0.36200
C1776       C  0.82804098  0.98722535  0.58045936     0.37000
N1777       N  0.85142020  0.05834858  0.80597404    -0.43800
N1778       N  0.84857389  0.95428551  0.72834532    -0.44300
N1779       N  0.81556477  0.98277103  0.56042649    -0.41600
N1780       N  0.90095260  0.01099851  0.70556945    -0.43100
H1781       H  0.88808280  0.00548290  0.59916490     0.13100
H1782       H  0.82853914  0.99040826  0.66569943     0.09600
H1783       H  0.85467440  0.03130651  0.71584490     0.10700
H1784       H  0.84596029  0.98077995  0.82113086     0.16500
C1785       C  0.86413970  0.99029428  0.15792687    -0.01700
C1786       C  0.85213900  0.00315976  0.17700373     0.06900
C1787       C  0.84292199  0.01528334  0.14962505    -0.07700
C1788       C  0.84538357  0.01483232  0.10459055     0.04300
C1789       C  0.85784568  0.00253397  0.08581265    -0.14900
C1790       C  0.86714047  0.99033381  0.11275436    -0.08300
C1791       C  0.85019289  0.00541622  0.22519889     0.05200
C1792       C  0.86595300  0.00657167  0.25045053    -0.09400
C1793       C  0.86499213  0.00906976  0.29537099     0.00200
C1794       C  0.84808497  0.01200393  0.31577129     0.00100
C1795       C  0.83223762  0.01128695  0.29091351    -0.12900
C1796       C  0.83311689  0.00757310  0.24610495     0.00600
C1797       C  0.88168728  0.00880851  0.31979463     0.39900
C1798       C  0.81630606  0.00540250  0.22279429     0.36500
C1799       C  0.87343644  0.97680871  0.18377388     0.36200
C1800       C  0.83597207  0.02823919  0.07888470     0.37000
N1801       N  0.89513479  0.00866832  0.33901585    -0.43800
N1802       N  0.80283763  0.00366380  0.20409308    -0.44300
N1803       N  0.82855994  0.03939457  0.05925783    -0.41600
N1804       N  0.88095922  0.96607041  0.20455713    -0.43100
H1805       H  0.87664458  0.98077031  0.09847836     0.13100
H1806       H  0.83422368  0.02566988  0.16353682     0.09600
H1807       H  0.87916181  0.00557950  0.23507202     0.10700
H1808       H  0.81918314  0.01298032  0.30674681     0.16500
C1809       C  0.97121343  0.28070463  0.77507492    -0.01700
C1810       C  0.98774776  0.27118793  0.77008878     0.06900
C1811       C  0.00401716  0.28044870  0.77776455    -0.07700
C1812       C  0.00413630  0.29877046  0.79044257     0.04300
C1813       C  0.98759441  0.30849562  0.79528074    -0.14900
C1814       C  0.97126202  0.29916197  0.78731506    -0.08300
C1815       C  0.98867344  0.25182765  0.75527625     0.05200
C1816       C  0.99764669  0.24785984  0.71600346    -0.09400
C1817       C  0.99955716  0.22986774  0.70136067     0.00200
C1818       C  0.99219932  0.21535368  0.72595067     0.00100
C1819       C  0.98321317  0.21931195  0.76523826    -0.12900
C1820       C  0.98168177  0.23728648  0.78036356     0.00600
C1821       C  0.00864549  0.22674660  0.66034810     0.39900
C1822       C  0.97365447  0.24036160  0.82261313     0.36500
C1823       C  0.95404122  0.27192469  0.76714721     0.36200
C1824       C  0.02159102  0.30714404  0.79744223     0.37000
N1825       N  0.01592814  0.22421970  0.62749143    -0.43800
N1826       N  0.96727858  0.24279058  0.85656521    -0.44300
N1827       N  0.03561528  0.31375498  0.80318541    -0.41600
N1828       N  0.94026727  0.26484605  0.76112845    -0.43100
H1829       H  0.95844738  0.30623798  0.79097159     0.13100
H1830       H  0.01676913  0.27325715  0.77386386     0.09600
H1831       H  0.00320162  0.25891154  0.69668418     0.10700
H1832       H  0.97780495  0.20826113  0.78480373     0.16500
C1833       C  0.92131331  0.11785480  0.77905710    -0.01700
C1834       C  0.92320727  0.11361453  0.82364433     0.06900
C1835       C  0.93583908  0.12332460  0.84850304    -0.07700
C1836       C  0.94757687  0.13590083  0.82897689     0.04300
C1837       C  0.94652313  0.13921270  0.78382148    -0.14900
C1838       C  0.93264691  0.13087902  0.75989106    -0.08300
C1839       C  0.91379277  0.09784313  0.84399248     0.05200
C1840       C  0.92435540  0.08381177  0.86216655    -0.09400
C1841       C  0.91624214  0.06856327  0.88158720     0.00200
C1842       C  0.89722011  0.06709181  0.88250178     0.00100
C1843       C  0.88668800  0.08110284  0.86423496    -0.12900
C1844       C  0.89474353  0.09647438  0.84561272     0.00600
C1845       C  0.92767693  0.05441711  0.89911642     0.39900
C1846       C  0.88313307  0.11088082  0.82992225     0.36500
C1847       C  0.90917027  0.10786652  0.75118920     0.36200
C1848       C  0.96119578  0.14446813  0.85553097     0.37000
N1849       N  0.93683156  0.04303372  0.91304924    -0.43800
N1850       N  0.87375740  0.12232197  0.81713898    -0.44300
N1851       N  0.97212101  0.15128001  0.87688772    -0.41600
N1852       N  0.89938281  0.10000152  0.72872399    -0.43100
H1853       H  0.93185038  0.13307396  0.72506029     0.13100
H1854       H  0.93721897  0.12030225  0.88286794     0.09600
H1855       H  0.93902467  0.08474329  0.86092595     0.10700
H1856       H  0.87201307  0.08037555  0.86596573     0.16500
C1857       C  0.89679950  0.07601072  0.60543623    -0.01700
C1858       C  0.90407892  0.09194649  0.58652196     0.06900
C1859       C  0.89620649  0.09859405  0.54795204    -0.07700
C1860       C  0.88260779  0.08878405  0.52629156     0.04300
C1861       C  0.87733960  0.07147801  0.54197938    -0.14900
C1862       C  0.88360559  0.06602025  0.58325780    -0.08300
C1863       C  0.92043234  0.10120799  0.60496662     0.05200
C1864       C  0.93638147  0.09106482  0.61240351    -0.09400
C1865       C  0.95212805  0.09933884  0.62881039     0.00200
C1866       C  0.95233550  0.11823171  0.63654378     0.00100
C1867       C  0.93650712  0.12837371  0.62866131    -0.12900
C1868       C  0.92061670  0.12005369  0.61379458     0.00600
C1869       C  0.96801923  0.08831451  0.63620852     0.39900
C1870       C  0.90447205  0.13103871  0.60968505     0.36500
C1871       C  0.90304708  0.06919182  0.64683046     0.36200
C1872       C  0.87497905  0.09643452  0.48717933     0.37000
N1873       N  0.98077088  0.07947264  0.64208076    -0.43800
N1874       N  0.89150947  0.13981322  0.60645465    -0.44300
N1875       N  0.86881026  0.10262809  0.45593338    -0.41600
N1876       N  0.90798284  0.06357321  0.67991058    -0.43100
H1877       H  0.87917442  0.05313438  0.59696910     0.13100
H1878       H  0.90125075  0.11109905  0.53356848     0.09600
H1879       H  0.93657022  0.07662704  0.60514665     0.10700
H1880       H  0.93635150  0.14284036  0.63571892     0.16500
C1881       C  0.97450110  0.24417071  0.23592685    -0.01700
C1882       C  0.98973776  0.25332213  0.25294977     0.06900
C1883       C  0.00613599  0.24378828  0.25714388    -0.07700
C1884       C  0.00771966  0.22567002  0.24367486     0.04300
C1885       C  0.99250723  0.21651750  0.22636692    -0.14900
C1886       C  0.97596199  0.22590412  0.22323210    -0.08300
C1887       C  0.98893108  0.27269270  0.26722379     0.05200
C1888       C  0.97617105  0.27791996  0.29895961    -0.09400
C1889       C  0.97549085  0.29586807  0.31430675     0.00200
C1890       C  0.98800103  0.30880895  0.29851245     0.00100
C1891       C  0.00082806  0.30362275  0.26716291    -0.12900
C1892       C  0.00125210  0.28583494  0.25103543     0.00600
C1893       C  0.96242297  0.30048670  0.34761296     0.39900
C1894       C  0.01420348  0.28157305  0.21718463     0.36500
C1895       C  0.95736359  0.25332648  0.22994126     0.36200
C1896       C  0.02499690  0.21673321  0.24938613     0.37000
N1897       N  0.95199134  0.30418983  0.37440074    -0.43800
N1898       N  0.02461887  0.27821813  0.19010093    -0.44300
N1899       N  0.03889841  0.20969248  0.25401612    -0.41600
N1900       N  0.94359759  0.26061341  0.22517785    -0.43100
H1901       H  0.96420284  0.21906176  0.20994038     0.13100
H1902       H  0.01778845  0.25054815  0.27120728     0.09600
H1903       H  0.96690341  0.26788017  0.31228111     0.10700
H1904       H  0.01036261  0.31361525  0.25469093     0.16500
C1905       C  0.91827433  0.12496835  0.29523970    -0.01700
C1906       C  0.92405255  0.11521467  0.33251508     0.06900
C1907       C  0.94116737  0.11903767  0.34945906    -0.07700
C1908       C  0.95291737  0.13121934  0.32908952     0.04300
C1909       C  0.94801104  0.13968100  0.28905740    -0.14900
C1910       C  0.93026247  0.13699378  0.27375286    -0.08300
C1911       C  0.91384007  0.09946615  0.35168950     0.05200
C1912       C  0.90796083  0.08541442  0.32421272    -0.09400
C1913       C  0.89996605  0.06953963  0.34096988     0.00200
C1914       C  0.89874631  0.06687401  0.38645189     0.00100
C1915       C  0.90527312  0.08060587  0.41391676    -0.12900
C1916       C  0.91204966  0.09700861  0.39718494     0.00600
C1917       C  0.89353538  0.05627536  0.31024418     0.39900
C1918       C  0.91636002  0.11134578  0.42753091     0.36500
C1919       C  0.90033029  0.12248427  0.27772895     0.36200
C1920       C  0.97059627  0.13303837  0.34864507     0.37000
N1921       N  0.88855008  0.04622401  0.28399381    -0.43800
N1922       N  0.91973315  0.12280941  0.45195795    -0.44300
N1923       N  0.98477867  0.13385266  0.36439856    -0.41600
N1924       N  0.88594394  0.12044175  0.26369882    -0.43100
H1925       H  0.92611170  0.14332540  0.24351830     0.13100
H1926       H  0.94599364  0.11150021  0.37748597     0.09600
H1927       H  0.90980084  0.08671829  0.28934503     0.10700
H1928       H  0.90422000  0.07891387  0.44884598     0.16500
C1929       C  0.99753850  0.17579749  0.98995951    -0.01700
C1930       C  0.01372011  0.16888637  0.97190195     0.06900
C1931       C  0.02811557  0.16440583  0.99921575    -0.07700
C1932       C  0.02638938  0.16579656  0.04434156     0.04300
C1933       C  0.00970810  0.17163696  0.06319179    -0.14900
C1934       C  0.99561764  0.17707487  0.03526832    -0.08300
C1935       C  0.01566706  0.16511922  0.92484390     0.05200
C1936       C  0.01944842  0.17944652  0.89626372    -0.09400
C1937       C  0.02120230  0.17635869  0.85150865     0.00200
C1938       C  0.01902179  0.15847546  0.83453379     0.00100
C1939       C  0.01593670  0.14407289  0.86389734    -0.12900
C1940       C  0.01423012  0.14726859  0.90859377     0.00600
C1941       C  0.02489493  0.19198060  0.82424715     0.39900
C1942       C  0.01018701  0.13214669  0.93710342     0.36500
C1943       C  0.98253256  0.18104658  0.96269756     0.36200
C1944       C  0.04198338  0.16065422  0.06988000     0.37000
N1945       N  0.02785744  0.20454430  0.80257906    -0.43800
N1946       N  0.00687515  0.12009294  0.96007857    -0.44300
N1947       N  0.05451781  0.15647451  0.09009801    -0.41600
N1948       N  0.97050589  0.18534094  0.94092160    -0.43100
H1949       H  0.98283271  0.18173634  0.04873796     0.13100
H1950       H  0.04065019  0.15934793  0.98512152     0.09600
H1951       H  0.02087429  0.19313561  0.90901458     0.10700
H1952       H  0.01414285  0.13032052  0.85189666     0.16500
C1953       C  0.99660462  0.16117854  0.49263998    -0.01700
C1954       C  0.01333945  0.16570135  0.47294381     0.06900
C1955       C  0.02730981  0.17286941  0.49856397    -0.07700
C1956       C  0.02493091  0.17504403  0.54353360     0.04300
C1957       C  0.00831738  0.17005517  0.56319734    -0.14900
C1958       C  0.99420780  0.16350822  0.53731122    -0.08300
C1959       C  0.01598317  0.16379276  0.42537349     0.05200
C1960       C  0.00575628  0.17496333  0.39808546    -0.09400
C1961       C  0.00601829  0.17249955  0.35315215     0.00200
C1962       C  0.01704814  0.15878468  0.33438118     0.00100
C1963       C  0.02766109  0.14779228  0.36169450    -0.12900
C1964       C  0.02726488  0.15027751  0.40702943     0.00600
C1965       C  0.99330879  0.18307104  0.32805792     0.39900
C1966       C  0.03794735  0.13842834  0.43425350     0.36500
C1967       C  0.98183343  0.15346935  0.46819665     0.36200
C1968       C  0.03945085  0.18288458  0.56864499     0.37000
N1969       N  0.98264325  0.19158889  0.30953559    -0.43800
N1970       N  0.04649710  0.12898776  0.45628312    -0.44300
N1971       N  0.05100829  0.18926627  0.58886790    -0.41600
N1972       N  0.96977500  0.14725465  0.44944459    -0.43100
H1973       H  0.98150034  0.15942774  0.55234924     0.13100
H1974       H  0.04002690  0.17678783  0.48338062     0.09600
H1975       H  0.99689862  0.18518931  0.41224405     0.10700
H1976       H  0.03604131  0.13715636  0.34769815     0.16500
C1977       C  0.93621204  0.09280329  0.11048712    -0.01700
C1978       C  0.92260925  0.10308893  0.08933264     0.06900
C1979       C  0.92394026  0.12207539  0.08925776    -0.07700
C1980       C  0.93841597  0.13090749  0.10963049     0.04300
C1981       C  0.95222951  0.12066245  0.13071043    -0.14900
C1982       C  0.95077184  0.10160588  0.13114430    -0.08300
C1983       C  0.90657310  0.09434672  0.06843882     0.05200
C1984       C  0.89448733  0.08430738  0.09434375    -0.09400
C1985       C  0.88032682  0.07432197  0.07568968     0.00200
C1986       C  0.87789361  0.07434198  0.03010921     0.00100
C1987       C  0.88891232  0.08586350  0.00467059    -0.12900
C1988       C  0.90325738  0.09567537  0.02331590     0.00600
C1989       C  0.86882488  0.06383413  0.10425217     0.39900
C1990       C  0.91525564  0.10577142  0.99496367     0.36500
C1991       C  0.93571856  0.07316383  0.11050013     0.36200
C1992       C  0.93806556  0.15058870  0.11011368     0.37000
N1993       N  0.85978015  0.05578370  0.12832393    -0.43800
N1994       N  0.92487988  0.11381238  0.97215403    -0.44300
N1995       N  0.93764175  0.16634266  0.11043867    -0.41600
N1996       N  0.93530414  0.05741468  0.11036539    -0.43100
H1997       H  0.96110896  0.09356886  0.14719905     0.13100
H1998       H  0.91338477  0.13007126  0.07384963     0.09600
H1999       H  0.89652680  0.08376542  0.12922750     0.10700
H2000       H  0.88745070  0.08589637  0.96959952     0.16500
C2001       C  0.99759824  0.78400953  0.77784341    -0.01700
C2002       C  0.01358225  0.77354033  0.77447072     0.06900
C2003       C  0.03038596  0.78186503  0.78194245    -0.07700
C2004       C  0.03147324  0.80033888  0.79280353     0.04300
C2005       C  0.01546260  0.81085379  0.79627956    -0.14900
C2006       C  0.99866183  0.80249395  0.78850789    -0.08300
C2007       C  0.01316743  0.75411025  0.76127843     0.05200
C2008       C  0.00689692  0.74968689  0.71963391    -0.09400
C2009       C  0.00664406  0.73161197  0.70536151     0.00200
C2010       C  0.01276957  0.71755666  0.73308857     0.00100
C2011       C  0.01931900  0.72200828  0.77450632    -0.12900
C2012       C  0.01948700  0.74010790  0.78882729     0.00600
C2013       C  0.00080554  0.72796509  0.66145410     0.39900
C2014       C  0.02572046  0.74392584  0.83229771     0.36500
C2015       C  0.97993042  0.77600394  0.77153847     0.36200
C2016       C  0.04922795  0.80826546  0.79827029     0.37000
N2017       N  0.99623495  0.72506081  0.62618931    -0.43800
N2018       N  0.03071013  0.74697404  0.86715389    -0.44300
N2019       N  0.06349424  0.81455967  0.80244418    -0.41600
N2020       N  0.96574218  0.76964208  0.76655795    -0.43100
H2021       H  0.98626304  0.81035230  0.79154801     0.13100
H2022       H  0.04272750  0.77393515  0.77858726     0.09600
H2023       H  0.00239305  0.76044607  0.69802688     0.10700
H2024       H  0.02390981  0.71127965  0.79609113     0.16500
C2025       C  0.93692202  0.97088885  0.91154118    -0.01700
C2026       C  0.93173080  0.95412187  0.89330752     0.06900
C2027       C  0.91325753  0.95009250  0.88892550    -0.07700
C2028       C  0.89992731  0.96244644  0.90283962     0.04300
C2029       C  0.90506311  0.97910519  0.92234794    -0.14900
C2030       C  0.92365397  0.98318079  0.92585201    -0.08300
C2031       C  0.94540775  0.94052096  0.87910339     0.05200
C2032       C  0.94942786  0.92584413  0.90660748    -0.09400
C2033       C  0.96250167  0.91284912  0.89487821     0.00200
C2034       C  0.97171412  0.91435396  0.85450606     0.00100
C2035       C  0.96764489  0.92919416  0.82718730    -0.12900
C2036       C  0.95464038  0.94218751  0.83912079     0.00600
C2037       C  0.96665237  0.89864288  0.92579397     0.39900
C2038       C  0.95087986  0.95704402  0.80970280     0.36500
C2039       C  0.95580208  0.97563784  0.91634684     0.36200
C2040       C  0.88117336  0.95799228  0.89486123     0.37000
N2041       N  0.96994852  0.88736008  0.95085784    -0.43800
N2042       N  0.94789401  0.96894473  0.78608051    -0.44300
N2043       N  0.86615725  0.95445432  0.88814934    -0.41600
N2044       N  0.97094113  0.97942615  0.92009914    -0.43100
H2045       H  0.92788664  0.99593234  0.94033613     0.13100
H2046       H  0.90926045  0.93730669  0.87421636     0.09600
H2047       H  0.94248312  0.92469667  0.93765706     0.10700
H2048       H  0.97450662  0.93058029  0.79609623     0.16500
C2049       C  0.03340982  0.78113107  0.28314765    -0.01700
C2050       C  0.01881673  0.77354060  0.25966341     0.06900
C2051       C  0.00373498  0.78452719  0.25044608    -0.07700
C2052       C  0.00263903  0.80245278  0.26536483     0.04300
C2053       C  0.01724156  0.81010730  0.28863060    -0.14900
C2054       C  0.03269854  0.79941719  0.29636363    -0.08300
C2055       C  0.01777237  0.75385124  0.24805626     0.05200
C2056       C  0.00258852  0.74399805  0.26253812    -0.09400
C2057       C  0.99993159  0.72586628  0.25049864     0.00200
C2058       C  0.01295084  0.71691987  0.22433497     0.00100
C2059       C  0.02837809  0.72659105  0.21050985    -0.12900
C2060       C  0.03068547  0.74502538  0.22128732     0.00600
C2061       C  0.98394697  0.71669661  0.26669777     0.39900
C2062       C  0.04586087  0.75473115  0.20263979     0.36500
C2063       C  0.04863504  0.77020816  0.29679430     0.36200
C2064       C  0.98622104  0.81248354  0.25648542     0.37000
N2065       N  0.97108363  0.70953018  0.27993606    -0.43800
N2066       N  0.05805212  0.76244795  0.18760411    -0.44300
N2067       N  0.97286309  0.82016845  0.24927283    -0.41600
N2068       N  0.06085725  0.76150518  0.30790308    -0.43100
H2069       H  0.04386885  0.80509063  0.31473420     0.13100
H2070       H  0.99242772  0.77883055  0.23257113     0.09600
H2071       H  0.99260330  0.75061253  0.28315905     0.10700
H2072       H  0.03834701  0.71989452  0.19002163     0.16500
C2073       C  0.93408425  0.96597167  0.42488666    -0.01700
C2074       C  0.92901090  0.95086056  0.39946090     0.06900
C2075       C  0.91076029  0.94857518  0.38805038    -0.07700
C2076       C  0.89767020  0.96139576  0.40037766     0.04300
C2077       C  0.90287815  0.97689298  0.42439875    -0.14900
C2078       C  0.92108481  0.97893092  0.43658045    -0.08300
C2079       C  0.94253584  0.93754651  0.38324501     0.05200
C2080       C  0.94093010  0.91920955  0.39550745    -0.09400
C2081       C  0.95317939  0.90614920  0.37997586     0.00200
C2082       C  0.96740048  0.91146598  0.35176069     0.00100
C2083       C  0.96893893  0.92982871  0.33951747    -0.12900
C2084       C  0.95655787  0.94279876  0.35452109     0.00600
C2085       C  0.95114166  0.88757349  0.39460861     0.39900
C2086       C  0.95819456  0.96129062  0.33891342     0.36500
C2087       C  0.95245159  0.96833422  0.43996095     0.36200
C2088       C  0.87922637  0.95871976  0.38621680     0.37000
N2089       N  0.94939496  0.87270214  0.40637546    -0.43800
N2090       N  0.95951211  0.97612683  0.32656733    -0.44300
N2091       N  0.86446727  0.95652831  0.37474497    -0.41600
N2092       N  0.96716311  0.97029050  0.45200512    -0.43100
H2093       H  0.92513609  0.99057876  0.45585979     0.13100
H2094       H  0.90681797  0.93694079  0.36859805     0.09600
H2095       H  0.93011461  0.91512913  0.41745610     0.10700
H2096       H  0.97966942  0.93401659  0.31744067     0.16500
C2097       C  0.98289163  0.85968058  0.52152072    -0.01700
C2098       C  0.99780030  0.86355300  0.54853538     0.06900
C2099       C  0.01535239  0.86283590  0.53064349    -0.07700
C2100       C  0.01818623  0.85929024  0.48632009     0.04300
C2101       C  0.00320486  0.85627646  0.45866759    -0.14900
C2102       C  0.98568823  0.85616402  0.47714379    -0.08300
C2103       C  0.99557799  0.86865208  0.59528440     0.05200
C2104       C  0.98753226  0.85633125  0.62460886    -0.09400
C2105       C  0.98723758  0.85982524  0.66956183     0.00200
C2106       C  0.99529480  0.87587535  0.68593316     0.00100
C2107       C  0.00230732  0.88863843  0.65617869    -0.12900
C2108       C  0.00246207  0.88522813  0.61147523     0.00600
C2109       C  0.97971374  0.84612553  0.69806737     0.39900
C2110       C  0.01003382  0.89895252  0.58310851     0.36500
C2111       C  0.96454842  0.85994769  0.53810824     0.36200
C2112       C  0.03656104  0.85988836  0.47002028     0.37000
N2113       N  0.97361452  0.83510799  0.72074609    -0.43800
N2114       N  0.01615858  0.91013546  0.56097424    -0.44300
N2115       N  0.05133836  0.86039622  0.45725861    -0.41600
N2116       N  0.94984717  0.86006165  0.55142182    -0.43100
H2117       H  0.97404826  0.85372347  0.45660783     0.13100
H2118       H  0.02692400  0.86546954  0.55134460     0.09600
H2119       H  0.98217012  0.84356643  0.61255293     0.10700
H2120       H  0.00832978  0.90114684  0.66804067     0.16500
C2121       C  0.99546131  0.84699398  0.12431078    -0.01700
C2122       C  0.99036695  0.86104027  0.09559250     0.06900
C2123       C  0.98268826  0.87703134  0.11258718    -0.07700
C2124       C  0.98117640  0.87966100  0.15765637     0.04300
C2125       C  0.98750782  0.86613048  0.18660757    -0.14900
C2126       C  0.99397576  0.84960829  0.16930943    -0.08300
C2127       C  0.99498218  0.86017734  0.04849606     0.05200
C2128       C  0.98584955  0.84802117  0.02103203    -0.09400
C2129       C  0.99048296  0.84665905  0.97672932     0.00200
C2130       C  0.00473999  0.85742661  0.95947593     0.00100
C2131       C  0.01384450  0.86947828  0.98739355    -0.12900
C2132       C  0.00904219  0.87100937  0.03122684     0.00600
C2133       C  0.98058825  0.83393189  0.95015046     0.39900
C2134       C  0.01893127  0.88369052  0.05803246     0.36500
C2135       C  0.00343114  0.83029847  0.10843920     0.36200
C2136       C  0.97315669  0.89636001  0.17325081     0.37000
N2137       N  0.97260879  0.82374878  0.92887584    -0.40600
N2138       N  0.02680944  0.89389684  0.07945453    -0.44300
N2139       N  0.96662593  0.90970667  0.18572799    -0.41600
N2140       N  0.00981277  0.81692958  0.09565532    -0.43100
H2141       H  0.99900134  0.83910495  0.19094052     0.13100
H2142       H  0.97850299  0.88776812  0.09054032     0.09600
H2143       H  0.97508216  0.83960120  0.03427898     0.10700
H2144       H  0.02461825  0.87806859  0.97480245     0.16500
C2145       C  0.10059207  0.07119745  0.65071998    -0.01700
C2146       C  0.08180952  0.06995855  0.64266386     0.06900
C2147       C  0.07515644  0.05476673  0.62017429    -0.07700
C2148       C  0.08680876  0.04095044  0.60570406     0.04300
C2149       C  0.10566493  0.04223170  0.61338031    -0.14900
C2150       C  0.11231767  0.05746479  0.63590162    -0.08300
C2151       C  0.06881960  0.08444069  0.65644611     0.05200
C2152       C  0.07048125  0.10206085  0.63900224    -0.09400
C2153       C  0.05779770  0.11571248  0.64908772     0.00200
C2154       C  0.04297762  0.11176467  0.67682321     0.00100
C2155       C  0.04142499  0.09415866  0.69441449    -0.12900
C2156       C  0.05422566  0.08062398  0.68484989     0.00600
C2157       C  0.05981073  0.13330800  0.62871742     0.39900
C2158       C  0.05233312  0.06301939  0.70535253     0.36500
C2159       C  0.10808358  0.08618428  0.67504057     0.36200
C2160       C  0.07908659  0.02606958  0.58137584     0.37000
N2161       N  0.06152888  0.14734087  0.61205943    -0.43800
N2162       N  0.05087051  0.04892352  0.72187004    -0.44300
N2163       N  0.07291466  0.01415824  0.56180982    -0.41600
N2164       N  0.11410148  0.09817075  0.69461508    -0.43100
H2165       H  0.12672084  0.05856155  0.64237515     0.13100
H2166       H  0.06076837  0.05383187  0.61337182     0.09600
H2167       H  0.08151963  0.10504257  0.61667605     0.10700
H2168       H  0.03025515  0.09101380  0.71623423     0.16500
C2169       C  0.11445365  0.91689775  0.64980920    -0.01700
C2170       C  0.09618675  0.91645350  0.66321528     0.06900
C2171       C  0.08595424  0.93266652  0.66204105    -0.07700
C2172       C  0.09371677  0.94912439  0.64796458     0.04300
C2173       C  0.11216842  0.94962642  0.63627707    -0.14900
C2174       C  0.12233432  0.93342635  0.63722517    -0.08300
C2175       C  0.08787612  0.89972457  0.68215722     0.05200
C2176       C  0.09523759  0.89239964  0.72048931    -0.09400
C2177       C  0.08520241  0.88019576  0.74609403     0.00200
C2178       C  0.06750474  0.87539048  0.73353666     0.00100
C2179       C  0.06141328  0.88042638  0.69203377    -0.12900
C2180       C  0.07141008  0.89262316  0.66638294     0.00600
C2181       C  0.09210752  0.87500834  0.78821451     0.39900
C2182       C  0.06388729  0.89871339  0.62561522     0.36500
C2183       C  0.12516577  0.90046751  0.64736862     0.36200
C2184       C  0.08274361  0.96538999  0.64725398     0.37000
N2185       N  0.09756298  0.87085188  0.82203298    -0.43800
N2186       N  0.05789097  0.90361497  0.59291900    -0.44300
N2187       N  0.07396066  0.97844926  0.64668985    -0.41600
N2188       N  0.13365437  0.88724255  0.64515449    -0.43100
H2189       H  0.13642504  0.93361215  0.62695939     0.13100
H2190       H  0.07193901  0.93251533  0.67284436     0.09600
H2191       H  0.10802044  0.89755960  0.73262507     0.10700
H2192       H  0.04777432  0.87679785  0.68217762     0.16500
C2193       C  0.08823060  0.91306722  0.38296933    -0.01700
C2194       C  0.08699732  0.92050454  0.42523768     0.06900
C2195       C  0.06990127  0.92092675  0.44591011    -0.07700
C2196       C  0.05440076  0.91397045  0.42524087     0.04300
C2197       C  0.05562691  0.90732895  0.38238450    -0.14900
C2198       C  0.07258810  0.90707550  0.36159036    -0.08300
C2199       C  0.10310856  0.92897533  0.44685663     0.05200
C2200       C  0.11242559  0.94294387  0.42500133    -0.09400
C2201       C  0.12623226  0.95280707  0.44539151     0.00200
C2202       C  0.13078699  0.94917350  0.48925131     0.00100
C2203       C  0.12256535  0.93415023  0.50987098    -0.12900
C2204       C  0.10885986  0.92407993  0.48911536     0.00600
C2205       C  0.13510029  0.96703323  0.42082353     0.39900
C2206       C  0.10074761  0.90896605  0.51208505     0.36500
C2207       C  0.10558205  0.91006697  0.36230431     0.36200
C2208       C  0.03732274  0.91366417  0.44828475     0.37000
N2209       N  0.14223051  0.97831385  0.40080266    -0.43800
N2210       N  0.09432733  0.89679749  0.53047879    -0.44300
N2211       N  0.02346752  0.91323404  0.46603132    -0.41600
N2212       N  0.11951275  0.90745307  0.34600459    -0.43100
H2213       H  0.07381672  0.90108002  0.32950757     0.13100
H2214       H  0.06866752  0.92662879  0.47828793     0.09600
H2215       H  0.10840983  0.94667711  0.39229757     0.10700
H2216       H  0.12587768  0.93104830  0.54334285     0.16500
C2217       C  0.07590576  0.10901529  0.16035545    -0.01700
C2218       C  0.07281773  0.09024467  0.15429835     0.06900
C2219       C  0.05528999  0.08335313  0.16143277    -0.07700
C2220       C  0.04081847  0.09484816  0.17265899     0.04300
C2221       C  0.04370244  0.11385431  0.17687020    -0.14900
C2222       C  0.06145276  0.12057649  0.17129582    -0.08300
C2223       C  0.08740540  0.07765429  0.13885500     0.05200
C2224       C  0.10350213  0.07567575  0.16282232    -0.09400
C2225       C  0.11725045  0.06370253  0.14906215     0.00200
C2226       C  0.11465444  0.05289765  0.11174694     0.00100
C2227       C  0.09869676  0.05503016  0.08762581    -0.12900
C2228       C  0.08534401  0.06751225  0.10022429     0.00600
C2229       C  0.13363865  0.06250562  0.17425777     0.39900
C2230       C  0.06991261  0.07010270  0.07214542     0.36500
C2231       C  0.09370437  0.11683433  0.15451807     0.36200
C2232       C  0.02334484  0.08656668  0.18051558     0.37000
N2233       N  0.14679306  0.06188671  0.19452890    -0.43800
N2234       N  0.05760989  0.07230931  0.04951883    -0.44300
N2235       N  0.00937158  0.07989662  0.18696574    -0.41600
N2236       N  0.10803022  0.12301125  0.15018633    -0.43100
H2237       H  0.06409402  0.13501473  0.17498906     0.13100
H2238       H  0.05288738  0.06885413  0.15793218     0.09600
H2239       H  0.10528724  0.08342256  0.19247448     0.10700
H2240       H  0.09671936  0.04695797  0.05851845     0.16500
C2241       C  0.10482923  0.94461175  0.20773681    -0.01700
C2242       C  0.09268769  0.93421314  0.18270040     0.06900
C2243       C  0.08915480  0.93967161  0.13979771    -0.07700
C2244       C  0.09784858  0.95472315  0.12120541     0.04300
C2245       C  0.11111450  0.96428665  0.14518996    -0.14900
C2246       C  0.11421332  0.95916157  0.18863100    -0.08300
C2247       C  0.08147085  0.91929275  0.20160891     0.05200
C2248       C  0.06269515  0.92135807  0.19955991    -0.09400
C2249       C  0.05103208  0.90814349  0.21595439     0.00200
C2250       C  0.05807978  0.89209052  0.23572486     0.00100
C2251       C  0.07700385  0.88990565  0.23765720    -0.12900
C2252       C  0.08871779  0.90324669  0.22024268     0.00600
C2253       C  0.03189542  0.91237999  0.21402206     0.39900
C2254       C  0.10800675  0.90001164  0.22100472     0.36500
C2255       C  0.10694497  0.94161884  0.25373723     0.36200
C2256       C  0.09265575  0.95998077  0.07772035     0.37000
N2257       N  0.01665864  0.91606972  0.21226773    -0.43800
N2258       N  0.12347826  0.89740025  0.22158714    -0.44300
N2259       N  0.08826822  0.96434123  0.04314625    -0.41600
N2260       N  0.10860278  0.93973045  0.29082998    -0.43100
H2261       H  0.12386501  0.96670424  0.20802987     0.13100
H2262       H  0.07915454  0.93232052  0.12109111     0.09600
H2263       H  0.05704579  0.93369147  0.18555577     0.10700
H2264       H  0.08262773  0.87785445  0.25292271     0.16500
C2265       C  0.14502410  0.01678197  0.87784694    -0.01700
C2266       C  0.16217436  0.01821926  0.85778062     0.06900
C2267       C  0.17706543  0.02354333  0.88301618    -0.07700
C2268       C  0.17521586  0.02670366  0.92801073     0.04300
C2269       C  0.15799746  0.02501131  0.94850656    -0.14900
C2270       C  0.14303893  0.02032664  0.92240937    -0.08300
C2271       C  0.16460270  0.01430302  0.81042660     0.05200
C2272       C  0.16571276  0.02886978  0.78114744    -0.09400
C2273       C  0.16585367  0.02590685  0.73606343     0.00200
C2274       C  0.16495051  0.00791454  0.71913023     0.00100
C2275       C  0.16484390  0.99328693  0.74875896    -0.12900
C2276       C  0.16455324  0.99636135  0.79397344     0.00600
C2277       C  0.16678371  0.04172607  0.70812632     0.39900
C2278       C  0.16375021  0.98094782  0.82308892     0.36500
C2279       C  0.12927395  0.01132391  0.85339530     0.36200
C2280       C  0.19133747  0.03119282  0.95218173     0.37000
N2281       N  0.16744888  0.05440952  0.68578273    -0.43800
N2282       N  0.16308181  0.96867750  0.84669758    -0.44300
N2283       N  0.20430857  0.03467127  0.97150634    -0.41600
N2284       N  0.11669662  0.00685121  0.83376808    -0.43100
H2285       H  0.12974887  0.01868354  0.93708135     0.13100
H2286       H  0.19027427  0.02478367  0.86768743     0.09600
H2287       H  0.16589860  0.04267855  0.79359679     0.10700
H2288       H  0.16418229  0.97944968  0.73666874     0.16500
C2289       C  0.17372815  0.02216547  0.38988125    -0.01700
C2290       C  0.15988555  0.02077490  0.35878489     0.06900
C2291       C  0.14173779  0.02115881  0.37254867    -0.07700
C2292       C  0.13722208  0.02196474  0.41691902     0.04300
C2293       C  0.15112579  0.02227022  0.44862603    -0.14900
C2294       C  0.16930646  0.02294848  0.43418730    -0.08300
C2295       C  0.16401690  0.01788730  0.31197312     0.05200
C2296       C  0.16282445  0.00023896  0.29490854    -0.09400
C2297       C  0.16544727  0.99699147  0.25036453     0.00200
C2298       C  0.16900152  0.01173296  0.22178693     0.00100
C2299       C  0.17121220  0.02922745  0.23962990    -0.12900
C2300       C  0.16876669  0.03238743  0.28421528     0.00600
C2301       C  0.16373044  0.97850528  0.23504588     0.39900
C2302       C  0.17069924  0.05068263  0.30060327     0.36500
C2303       C  0.19259153  0.02204226  0.37712575     0.36200
C2304       C  0.11824108  0.02186843  0.42859220     0.37000
N2305       N  0.16248760  0.96362410  0.22310794    -0.43800
N2306       N  0.17229920  0.06534142  0.31376637    -0.44300
N2307       N  0.10301609  0.02178062  0.43787411    -0.41600
N2308       N  0.20770489  0.02196471  0.36685685    -0.43100
H2309       H  0.18025236  0.02328067  0.45758890     0.13100
H2310       H  0.13105568  0.02030622  0.34851027     0.09600
H2311       H  0.15952713  0.98899328  0.31643254     0.10700
H2312       H  0.17451398  0.04057778  0.21848962     0.16500
C2313       C  0.10763467  0.95705460  0.93836038    -0.01700
C2314       C  0.10365026  0.93903162  0.95113995     0.06900
C2315       C  0.11453492  0.93068173  0.98292217    -0.07700
C2316       C  0.12823569  0.94045334  0.00427870     0.04300
C2317       C  0.13167609  0.95878271  0.99264282    -0.14900
C2318       C  0.12186419  0.96638844  0.95782954    -0.08300
C2319       C  0.08831939  0.92888226  0.93109016     0.05200
C2320       C  0.08732340  0.92814529  0.88555794    -0.09400
C2321       C  0.07271141  0.91985398  0.86489306     0.00200
C2322       C  0.05909157  0.91128147  0.88977751     0.00100
C2323       C  0.06007318  0.91164353  0.93521045    -0.12900
C2324       C  0.07439696  0.92059723  0.95605693     0.00600
C2325       C  0.07202583  0.92040035  0.81799531     0.39900
C2326       C  0.07433071  0.92111099  0.00290743     0.36500
C2327       C  0.09640751  0.96696459  0.90799893     0.36200
C2328       C  0.13794104  0.93152630  0.03893678     0.37000
N2329       N  0.07154411  0.92123869  0.78044472    -0.43800
N2330       N  0.07412104  0.92129451  0.04050267    -0.44300
N2331       N  0.14566677  0.92435397  0.06680850    -0.41600
N2332       N  0.08740206  0.97496555  0.88387459    -0.43100
H2333       H  0.12420801  0.98037836  0.94790575     0.13100
H2334       H  0.11195598  0.91664669  0.99203265     0.09600
H2335       H  0.09799484  0.93420816  0.86595097     0.10700
H2336       H  0.04979958  0.90469021  0.95435370     0.16500
C2337       C  0.73215300  0.04094504  0.50431365    -0.01700
C2338       C  0.74531677  0.02910933  0.52153867     0.06900
C2339       C  0.74007498  0.01567279  0.55135804    -0.07700
C2340       C  0.72187818  0.01345753  0.56322796     0.04300
C2341       C  0.70841731  0.02493712  0.54496868    -0.14900
C2342       C  0.71389851  0.03884715  0.51620180    -0.08300
C2343       C  0.76435354  0.02925144  0.50594840     0.05200
C2344       C  0.77651923  0.04231786  0.52157959    -0.09400
C2345       C  0.79483207  0.04204951  0.50886038     0.00200
C2346       C  0.80117020  0.02848033  0.47968975     0.00100
C2347       C  0.78875186  0.01555010  0.46399851    -0.12900
C2348       C  0.77055329  0.01585940  0.47680262     0.00600
C2349       C  0.80680037  0.05545087  0.52755125     0.39900
C2350       C  0.75836478  0.00233520  0.45945475     0.36500
C2351       C  0.73698801  0.05482452  0.47307233     0.36200
C2352       C  0.71762253  0.99929747  0.59429828     0.37000
N2353       N  0.81636651  0.06618730  0.54263888    -0.43800
N2354       N  0.74849474  0.99156405  0.44571431    -0.44300
N2355       N  0.71428275  0.98791319  0.61914181    -0.41600
N2356       N  0.74086894  0.06592853  0.44796767    -0.43100
H2357       H  0.70385726  0.04781763  0.50195784     0.13100
H2358       H  0.75025679  0.00658939  0.56465697     0.09600
H2359       H  0.77174738  0.05253608  0.54433555     0.10700
H2360       H  0.79321902  0.00512713  0.44144489     0.16500
C2361       C  0.77536440  0.03929989  0.01169973    -0.01700
C2362       C  0.76336372  0.02553300  0.99791072     0.06900
C2363       C  0.76972215  0.01224574  0.96890945    -0.07700
C2364       C  0.78782964  0.01205349  0.95489880     0.04300
C2365       C  0.80011048  0.02553893  0.96975246    -0.14900
C2366       C  0.79340528  0.03937213  0.99705412    -0.08300
C2367       C  0.74410973  0.02478884  0.01295078     0.05200
C2368       C  0.73258836  0.03959156  0.00468011    -0.09400
C2369       C  0.71436608  0.03938418  0.01798177     0.00200
C2370       C  0.70712915  0.02384962  0.03938259     0.00100
C2371       C  0.71879713  0.00904053  0.04752171    -0.12900
C2372       C  0.73706844  0.00944479  0.03490195     0.00600
C2373       C  0.70363283  0.05541186  0.00922752     0.39900
C2374       C  0.74845342  0.99414156  0.04608060     0.36500
C2375       C  0.76970573  0.05306179  0.04236142     0.36200
C2376       C  0.79313426  0.99807080  0.92438928     0.37000
N2377       N  0.69512156  0.06833790  0.00237169    -0.43800
N2378       N  0.75757871  0.98189720  0.05513492    -0.44300
N2379       N  0.79732999  0.98687917  0.89986848    -0.41600
N2380       N  0.76514954  0.06404844  0.06702991    -0.43100
H2381       H  0.80235379  0.05009166  0.00795859     0.13100
H2382       H  0.76045642  0.00191155  0.95722051     0.09600
H2383       H  0.73787925  0.05139968  0.98763865     0.10700
H2384       H  0.71372357  0.99706303  0.06423402     0.16500
C2385       C  0.63855496  0.00091854  0.85713082    -0.01700
C2386       C  0.65620206  0.99905493  0.84002093     0.06900
C2387       C  0.67036383  0.99417261  0.86788361    -0.07700
C2388       C  0.66736027  0.99210174  0.91273875     0.04300
C2389       C  0.64986665  0.99541399  0.93073421    -0.14900
C2390       C  0.63553003  0.99924949  0.90202699    -0.08300
C2391       C  0.65993736  0.00212503  0.79298916     0.05200
C2392       C  0.65944551  0.01993315  0.77640250    -0.09400
C2393       C  0.66078771  0.02325948  0.73152811     0.00200
C2394       C  0.66264125  0.00850082  0.70223352     0.00100
C2395       C  0.66388930  0.99073656  0.71935882    -0.12900
C2396       C  0.66259866  0.98748903  0.76420070     0.00600
C2397       C  0.65898857  0.04182002  0.71657030     0.39900
C2398       C  0.66310681  0.96895726  0.77986256     0.36500
C2399       C  0.62336635  0.00455853  0.82895723     0.36200
C2400       C  0.68255149  0.98651950  0.93910618     0.37000
N2401       N  0.65750658  0.05670362  0.70466659    -0.43800
N2402       N  0.66347288  0.95413265  0.79263450    -0.44300
N2403       N  0.69470180  0.98191894  0.96014233    -0.41600
N2404       N  0.61129592  0.00732605  0.80596261    -0.43100
H2405       H  0.62198549  0.00154168  0.91466959     0.13100
H2406       H  0.68385190  0.99216354  0.85455615     0.09600
H2407       H  0.65738183  0.03123022  0.79855045     0.10700
H2408       H  0.66538936  0.97924429  0.69754539     0.16500
C2409       C  0.67343395  0.99259484  0.37007419    -0.01700
C2410       C  0.66008846  0.99876512  0.34097394     0.06900
C2411       C  0.64245685  0.00182926  0.35622882    -0.07700
C2412       C  0.63802609  0.99945941  0.40014759     0.04300
C2413       C  0.65165031  0.99440869  0.43035366    -0.14900
C2414       C  0.66922734  0.99071093  0.41442091    -0.08300
C2415       C  0.66374849  0.00155578  0.29398803     0.05200
C2416       C  0.66332434  0.98645591  0.26640502    -0.09400
C2417       C  0.66350900  0.98863065  0.22115882     0.00200
C2418       C  0.66419868  0.00634294  0.20259872     0.00100
C2419       C  0.66576516  0.02139365  0.23062726    -0.12900
C2420       C  0.66541531  0.01913370  0.27593769     0.00600
C2421       C  0.66260627  0.97235591  0.19497853     0.39900
C2422       C  0.66621573  0.03505651  0.30335046     0.36500
C2423       C  0.69153374  0.98833747  0.35522285     0.36200
C2424       C  0.61941648  0.00267711  0.41278580     0.37000
N2425       N  0.66180558  0.95925523  0.17422004    -0.43800
N2426       N  0.66687287  0.04781397  0.32532329    -0.44300
N2427       N  0.60445574  0.00519764  0.42258374    -0.41600
N2428       N  0.70601553  0.98478255  0.34333066    -0.43100
H2429       H  0.67983634  0.98664167  0.43671832     0.13100
H2430       H  0.63206708  0.00611632  0.33352297     0.09600
H2431       H  0.66208392  0.97292958  0.28034328     0.10700
H2432       H  0.66641752  0.03504965  0.21724706     0.16500
C2433       C  0.53070959  0.23811489  0.74384982    -0.01700
C2434       C  0.52095076  0.25147013  0.76714751     0.06900
C2435       C  0.51079281  0.24621651  0.80366951    -0.07700
C2436       C  0.50984765  0.22790597  0.81653572     0.04300
C2437       C  0.51914787  0.21433271  0.79240291    -0.14900
C2438       C  0.52988879  0.21976325  0.75677524    -0.08300
C2439       C  0.51993647  0.27070452  0.75188000     0.05200
C2440       C  0.50434509  0.27641509  0.72993593    -0.09400
C2441       C  0.50270732  0.29423964  0.71396998     0.00200
C2442       C  0.51706183  0.30691286  0.71948617     0.00100
C2443       C  0.53259630  0.30110642  0.74233326    -0.12900
C2444       C  0.53405316  0.28327470  0.75867797     0.00600
C2445       C  0.48600005  0.29892879  0.69239621     0.39900
C2446       C  0.54992324  0.27828906  0.78329667     0.36500
C2447       C  0.54092199  0.24285536  0.70533237     0.36200
C2448       C  0.49942817  0.22352722  0.85506064     0.37000
N2449       N  0.47253749  0.30259632  0.67528576    -0.43800
N2450       N  0.56258320  0.27433330  0.80330868    -0.44300
N2451       N  0.49109663  0.21998378  0.88591775    -0.41600
N2452       N  0.54901317  0.24671373  0.67433867    -0.43100
H2453       H  0.53711043  0.20958320  0.73798223     0.13100
H2454       H  0.50334713  0.25645358  0.82179835     0.09600
H2455       H  0.49336883  0.26681141  0.72513531     0.10700
H2456       H  0.54363151  0.31054739  0.74789308     0.16500
C2457       C  0.57125966  0.08832149  0.90531031    -0.01700
C2458       C  0.58697579  0.09799050  0.91772987     0.06900
C2459       C  0.58781354  0.11676369  0.91045640    -0.07700
C2460       C  0.57327290  0.12603577  0.89161079     0.04300
C2461       C  0.55736155  0.11648762  0.87964058    -0.14900
C2462       C  0.55665605  0.09757968  0.88603080    -0.08300
C2463       C  0.60260636  0.08880545  0.93884207     0.05200
C2464       C  0.61298910  0.07632008  0.91488663    -0.09400
C2465       C  0.62643081  0.06585663  0.93513023     0.00200
C2466       C  0.62951110  0.06768913  0.98025027     0.00100
C2467       C  0.62036840  0.08150313  0.00307453    -0.12900
C2468       C  0.60695124  0.09198402  0.98282325     0.00600
C2469       C  0.63658649  0.05300625  0.90921837     0.39900
C2470       C  0.59693117  0.10496450  0.00867552     0.36500
C2471       C  0.56964471  0.06902028  0.91337579     0.36200
C2472       C  0.57541936  0.14527871  0.88321673     0.37000
N2473       N  0.64485934  0.04285807  0.88832565    -0.43800
N2474       N  0.58896030  0.11541546  0.02939296    -0.44300
N2475       N  0.57715139  0.16067905  0.87635442    -0.41600
N2476       N  0.56841233  0.05355968  0.92007996    -0.43100
H2477       H  0.54459813  0.09012573  0.87676642     0.13100
H2478       H  0.59994533  0.12418338  0.91939252     0.09600
H2479       H  0.61015566  0.07432170  0.88064598     0.10700
H2480       H  0.62248520  0.08303122  0.03773950     0.16500
C2481       C  0.56004837  0.10561137  0.67657876    -0.01700
C2482       C  0.57884747  0.10446880  0.68374650     0.06900
C2483       C  0.58719030  0.11761968  0.71027700    -0.07700
C2484       C  0.57687780  0.13114764  0.73144341     0.04300
C2485       C  0.55791504  0.13190005  0.72520827    -0.14900
C2486       C  0.55001621  0.11944008  0.69596060    -0.08300
C2487       C  0.58964025  0.08950058  0.66369537     0.05200
C2488       C  0.58843503  0.08678152  0.61862220    -0.09400
C2489       C  0.59654468  0.07175460  0.59864208     0.00200
C2490       C  0.60727719  0.05965999  0.62344666     0.00100
C2491       C  0.60868114  0.06250150  0.66855364    -0.12900
C2492       C  0.59970177  0.07702394  0.68887950     0.00600
C2493       C  0.59340119  0.06918621  0.55276880     0.39900
C2494       C  0.60048988  0.07840914  0.73567391     0.36500
C2495       C  0.55035116  0.09195009  0.65210280     0.36200
C2496       C  0.58609017  0.14388732  0.75926871     0.37000
N2497       N  0.59042102  0.06702849  0.51623829    -0.43800
N2498       N  0.60106790  0.07945384  0.77319091    -0.44300
N2499       N  0.59363398  0.15412786  0.78126947    -0.41600
N2500       N  0.54258161  0.08098780  0.63266197    -0.43100
H2501       H  0.53551885  0.11954021  0.69023515     0.13100
H2502       H  0.60172954  0.11707047  0.71518279     0.09600
H2503       H  0.58065576  0.09624562  0.59902626     0.10700
H2504       H  0.61672383  0.05325072  0.68809669     0.16500
C2505       C  0.53237320  0.27783297  0.23665846    -0.01700
C2506       C  0.51693511  0.26929412  0.25480435     0.06900
C2507       C  0.50098444  0.27949782  0.26005137    -0.07700
C2508       C  0.49997729  0.29763626  0.24605244     0.04300
C2509       C  0.51527106  0.30607553  0.22664912    -0.14900
C2510       C  0.53147533  0.29608437  0.22311705    -0.08300
C2511       C  0.51697596  0.24969125  0.26781853     0.05200
C2512       C  0.52899794  0.24361298  0.30009955    -0.09400
C2513       C  0.52916129  0.22532433  0.31347242     0.00200
C2514       C  0.51704700  0.21279519  0.29462798     0.00100
C2515       C  0.50490603  0.21888797  0.26285560    -0.12900
C2516       C  0.50485538  0.23706217  0.24904891     0.00600
C2517       C  0.54115532  0.21989415  0.34811734     0.39900
C2518       C  0.49250630  0.24235000  0.21496835     0.36500
C2519       C  0.54902641  0.26789703  0.22974913     0.36200
C2520       C  0.48312775  0.30729369  0.25272993     0.37000
N2521       N  0.55064712  0.21552746  0.37612698    -0.43800
N2522       N  0.48258966  0.24657392  0.18769120    -0.44300
N2523       N  0.46959327  0.31496956  0.25807061    -0.41600
N2524       N  0.56234969  0.25988377  0.22421772    -0.43100
H2525       H  0.54330726  0.30233327  0.20827673     0.13100
H2526       H  0.48917307  0.27316869  0.27483813     0.09600
H2527       H  0.53813727  0.25328506  0.31536694     0.10700
H2528       H  0.49539939  0.20922711  0.24830330     0.16500
C2529       C  0.58590304  0.09710174  0.35767314    -0.01700
C2530       C  0.58936341  0.09568866  0.40275925     0.06900
C2531       C  0.57687939  0.10350610  0.43198971    -0.07700
C2532       C  0.56119578  0.11236721  0.41720184     0.04300
C2533       C  0.55727393  0.11288979  0.37223277    -0.14900
C2534       C  0.56968720  0.10493387  0.34308345    -0.08300
C2535       C  0.60515184  0.08525184  0.42060633     0.05200
C2536       C  0.61597076  0.09300293  0.45342316    -0.09400
C2537       C  0.62841709  0.08239523  0.47719116     0.00200
C2538       C  0.63072958  0.06374209  0.46707842     0.00100
C2539       C  0.62144322  0.05676740  0.43073732    -0.12900
C2540       C  0.60818906  0.06688204  0.40924248     0.00600
C2541       C  0.63741623  0.09067042  0.51372194     0.39900
C2542       C  0.59642962  0.05722259  0.37973167     0.36500
C2543       C  0.59911853  0.09146174  0.32557591     0.36200
C2544       C  0.54932932  0.12064969  0.44899580     0.37000
N2545       N  0.64451836  0.09729375  0.54320606    -0.43800
N2546       N  0.58699894  0.04938841  0.35632667    -0.44300
N2547       N  0.53990835  0.12738191  0.47452282    -0.41600
N2548       N  0.60966319  0.08691629  0.29980041    -0.43100
H2549       H  0.56721039  0.10572260  0.30840346     0.13100
H2550       H  0.57933187  0.10259625  0.46668002     0.09600
H2551       H  0.61382207  0.10711100  0.46245768     0.10700
H2552       H  0.62303441  0.04259069  0.42172527     0.16500
C2553       C  0.48749875  0.17343522  0.62038058    -0.01700
C2554       C  0.49088224  0.15863163  0.59249751     0.06900
C2555       C  0.49212987  0.14108337  0.61012649    -0.07700
C2556       C  0.49093319  0.13817374  0.65513468     0.04300
C2557       C  0.48846109  0.15315462  0.68377047    -0.14900
C2558       C  0.48632056  0.17063942  0.66545985    -0.08300
C2559       C  0.49379619  0.16115979  0.54497565     0.05200
C2560       C  0.51022891  0.16855893  0.53006375    -0.09400
C2561       C  0.51402220  0.17007656  0.48536856     0.00200
C2562       C  0.50104720  0.16426410  0.45443436     0.00100
C2563       C  0.48441548  0.15722803  0.46996496    -0.12900
C2564       C  0.48080288  0.15554146  0.51451927     0.00600
C2565       C  0.53149741  0.17722178  0.47272370     0.39900
C2566       C  0.46366491  0.14791139  0.52825147     0.36500
C2567       C  0.48524750  0.19161504  0.60332546     0.36200
C2568       C  0.49295065  0.11969474  0.67051660     0.37000
N2569       N  0.54555886  0.18290703  0.46284005    -0.43800
N2570       N  0.44993360  0.14176963  0.53918617    -0.44300
N2571       N  0.49460091  0.10485544  0.68260831    -0.41600
N2572       N  0.48336719  0.20615209  0.58948438    -0.43100
H2573       H  0.48425643  0.18231378  0.68642159     0.13100
H2574       H  0.49454331  0.12964190  0.58860393     0.09600
H2575       H  0.52030396  0.17278654  0.55353084     0.10700
H2576       H  0.47419461  0.15263928  0.44728936     0.16500
C2577       C  0.49714011  0.17938683  0.12239428    -0.01700
C2578       C  0.49486237  0.16558936  0.09120189     0.06900
C2579       C  0.49012811  0.14801350  0.10490341    -0.07700
C2580       C  0.48822681  0.14381245  0.14911281     0.04300
C2581       C  0.49105592  0.15749598  0.18078145    -0.14900
C2582       C  0.49514297  0.17525932  0.16655958    -0.08300
C2583       C  0.49761220  0.16901620  0.04409435     0.05200
C2584       C  0.51529543  0.17065057  0.02762553    -0.09400
C2585       C  0.51854666  0.17161678  0.98267123     0.00200
C2586       C  0.50380314  0.17107194  0.95329105     0.00100
C2587       C  0.48605929  0.17036531  0.97040549    -0.12900
C2588       C  0.48290201  0.16925184  0.01519465     0.00600
C2589       C  0.53715405  0.17199598  0.96799966     0.39900
C2590       C  0.46445752  0.16799126  0.03085046     0.36500
C2591       C  0.50160364  0.19778675  0.10970757     0.36200
C2592       C  0.48340890  0.12538687  0.16081008     0.37000
N2593       N  0.55213179  0.17227600  0.95666399    -0.43800
N2594       N  0.44969384  0.16696733  0.04350862    -0.44300
N2595       N  0.47954788  0.11060220  0.17005551    -0.41600
N2596       N  0.50515388  0.21255623  0.09965301    -0.43100
H2597       H  0.49752884  0.18611768  0.19055534     0.13100
H2598       H  0.48818524  0.13732477  0.08058150     0.09600
H2599       H  0.52665971  0.17041527  0.04999950     0.10700
H2600       H  0.47451486  0.17013451  0.94863136     0.16500
C2601       C  0.56596142  0.11783274  0.15964577    -0.01700
C2602       C  0.58135478  0.10997923  0.17926915     0.06900
C2603       C  0.58801893  0.11780086  0.21774075    -0.07700
C2604       C  0.57835748  0.13154626  0.23952800     0.04300
C2605       C  0.56142222  0.13738995  0.22325785    -0.14900
C2606       C  0.55621390  0.13138426  0.18159382    -0.08300
C2607       C  0.59061186  0.09356635  0.16093827     0.05200
C2608       C  0.60926520  0.09445292  0.15246126    -0.09400
C2609       C  0.61877853  0.07926432  0.13712993     0.00200
C2610       C  0.60956410  0.06271274  0.12897107     0.00100
C2611       C  0.59087206  0.06176755  0.13709488    -0.12900
C2612       C  0.58145630  0.07684803  0.15404850     0.00600
C2613       C  0.63795510  0.08130489  0.12864075     0.39900
C2614       C  0.56265393  0.07452567  0.16607389     0.36500
C2615       C  0.55944721  0.11181082  0.11784646     0.36200
C2616       C  0.58563889  0.13847177  0.27970483     0.37000
N2617       N  0.65331514  0.08298360  0.12191901    -0.43800
N2618       N  0.54759117  0.07265412  0.17578690    -0.44300
N2619       N  0.59155414  0.14398982  0.31188122    -0.41600
N2620       N  0.55402354  0.10697048  0.08455994    -0.43100
H2621       H  0.54364780  0.13624785  0.16748890     0.13100
H2622       H  0.60036761  0.11251955  0.23201157     0.09600
H2623       H  0.61645282  0.10711780  0.15787105     0.10700
H2624       H  0.58373174  0.04911741  0.13124626     0.16500
C2625       C  0.50402331  0.77540331  0.74328630    -0.01700
C2626       C  0.48721408  0.76633505  0.74453767     0.06900
C2627       C  0.47138542  0.77599597  0.73441611    -0.07700
C2628       C  0.47210251  0.79447931  0.72284095     0.04300
C2629       C  0.48901137  0.80364182  0.72118864    -0.14900
C2630       C  0.50482819  0.79378868  0.73125618    -0.08300
C2631       C  0.48582564  0.74707272  0.75894386     0.05200
C2632       C  0.47959017  0.74347607  0.80114515    -0.09400
C2633       C  0.47896971  0.72565502  0.81731316     0.00200
C2634       C  0.48458300  0.71091467  0.79081646     0.00100
C2635       C  0.49074870  0.71457171  0.74832965    -0.12900
C2636       C  0.49129347  0.73246147  0.73220463     0.00600
C2637       C  0.47337584  0.72306740  0.86196809     0.39900
C2638       C  0.49723840  0.73551598  0.68799955     0.36500
C2639       C  0.52053078  0.76626506  0.75586174     0.36200
C2640       C  0.45529958  0.80347962  0.71203533     0.37000
N2641       N  0.46895508  0.72100609  0.89779586    -0.43800
N2642       N  0.50192666  0.73795615  0.65250168    -0.44300
N2643       N  0.44182351  0.81068903  0.70342928    -0.41600
N2644       N  0.53371100  0.75892926  0.76625259    -0.43100
H2645       H  0.51788842  0.80054077  0.73052919     0.13100
H2646       H  0.45841919  0.76905935  0.73571636     0.09600
H2647       H  0.47556159  0.75472254  0.82188577     0.10700
H2648       H  0.49496505  0.70342082  0.72751196     0.16500
C2649       C  0.54906912  0.93293162  0.62267981    -0.01700
C2650       C  0.56763574  0.93021002  0.63105188     0.06900
C2651       C  0.57311592  0.91455181  0.65353531    -0.07700
C2652       C  0.56039232  0.90183606  0.66862310     0.04300
C2653       C  0.54160687  0.90489041  0.66187521    -0.14900
C2654       C  0.53628683  0.92042498  0.63825076    -0.08300
C2655       C  0.58144142  0.94393602  0.61823154     0.05200
C2656       C  0.58052470  0.96135638  0.63670412    -0.09400
C2657       C  0.59306363  0.97484569  0.62529046     0.00200
C2658       C  0.60703535  0.97091421  0.59504402     0.00100
C2659       C  0.60819091  0.95330924  0.57738588    -0.12900
C2660       C  0.59546063  0.93990083  0.58844331     0.00600
C2661       C  0.59144167  0.99246330  0.64580435     0.39900
C2662       C  0.59656175  0.92236922  0.56742909     0.36500
C2663       C  0.54285096  0.94828691  0.59740490     0.36200
C2664       C  0.56717661  0.88605967  0.69144460     0.37000
N2665       N  0.59013827  0.00658839  0.66216016    -0.43800
N2666       N  0.59736502  0.90832902  0.55050778    -0.44300
N2667       N  0.57273035  0.87340952  0.70951569    -0.41600
N2668       N  0.53789918  0.96055125  0.57697514    -0.43100
H2669       H  0.52205276  0.92286394  0.63176158     0.13100
H2670       H  0.58741351  0.91240841  0.65990165     0.09600
H2671       H  0.56991644  0.96441746  0.66011530     0.10700
H2672       H  0.61869911  0.95017914  0.55378586     0.16500
C2673       C  0.47317922  0.77946001  0.26151029    -0.01700
C2674       C  0.48663323  0.76654618  0.25125552     0.06900
C2675       C  0.50128648  0.77173323  0.22491008    -0.07700
C2676       C  0.50285971  0.78960796  0.20915058     0.04300
C2677       C  0.48955299  0.80283810  0.22004217    -0.14900
C2678       C  0.47471352  0.79738014  0.24602715    -0.08300
C2679       C  0.48597551  0.74766110  0.26867620     0.05200
C2680       C  0.47767527  0.73391183  0.24424015    -0.09400
C2681       C  0.47731804  0.71583561  0.25923027     0.00200
C2682       C  0.48549080  0.71127974  0.29937806     0.00100
C2683       C  0.49383267  0.72512331  0.32363132    -0.12900
C2684       C  0.49399905  0.74319279  0.30879877     0.00600
C2685       C  0.46933970  0.70212132  0.23169772     0.39900
C2686       C  0.50253501  0.75697075  0.33513468     0.36500
C2687       C  0.45773620  0.77459486  0.28807981     0.36200
C2688       C  0.51818144  0.79374321  0.18146590     0.37000
N2689       N  0.46301456  0.69115233  0.20946051    -0.43800
N2690       N  0.50931959  0.76806563  0.35619429    -0.44300
N2691       N  0.53045149  0.79702349  0.15920824    -0.41600
N2692       N  0.44534809  0.77063770  0.30929363    -0.43100
H2693       H  0.46433284  0.80717656  0.25483030     0.13100
H2694       H  0.51160374  0.76175338  0.21681325     0.09600
H2695       H  0.47165806  0.73729029  0.21314220     0.10700
H2696       H  0.50017566  0.72182754  0.35439798     0.16500
C2697       C  0.57199157  0.91540262  0.16632237    -0.01700
C2698       C  0.56732794  0.93046507  0.14006589     0.06900
C2699       C  0.54931260  0.93236300  0.12631386    -0.07700
C2700       C  0.53588962  0.91999140  0.13943677     0.04300
C2701       C  0.54033197  0.90532615  0.16743750    -0.14900
C2702       C  0.55855150  0.90304641  0.17977669    -0.08300
C2703       C  0.58089329  0.94447672  0.12652387     0.05200
C2704       C  0.59558440  0.93943326  0.10000934    -0.09400
C2705       C  0.60808590  0.95242436  0.08487665     0.00200
C2706       C  0.60598624  0.97102862  0.09618438     0.00100
C2707       C  0.59131117  0.97595688  0.12311333    -0.12900
C2708       C  0.57890430  0.96293567  0.13832703     0.00600
C2709       C  0.62243981  0.94626110  0.05640673     0.39900
C2710       C  0.56436566  0.96880608  0.16663553     0.36500
C2711       C  0.59036561  0.91261878  0.18089661     0.36200
C2712       C  0.51783283  0.92241452  0.12236114     0.37000
N2713       N  0.63391267  0.94128571  0.03353232    -0.43800
N2714       N  0.55269752  0.97346864  0.18931252    -0.44300
N2715       N  0.50339635  0.92432454  0.10847254    -0.41600
N2716       N  0.60510624  0.91033824  0.19244226    -0.43100
H2717       H  0.56227712  0.89180474  0.20080141     0.13100
H2718       H  0.54573250  0.94359611  0.10509438     0.09600
H2719       H  0.59708182  0.92531489  0.09038156     0.10700
H2720       H  0.58953558  0.99005922  0.13259175     0.16500
C2721       C  0.52681289  0.85683536  0.99850890    -0.01700
C2722       C  0.51225110  0.85741786  0.96926194     0.06900
C2723       C  0.49451214  0.85504175  0.98476526    -0.07700
C2724       C  0.49106853  0.85240195  0.02918915     0.04300
C2725       C  0.50566863  0.85212684  0.05899153    -0.14900
C2726       C  0.52346102  0.85423406  0.04286620    -0.08300
C2727       C  0.51523751  0.86036389  0.92219417     0.05200
C2728       C  0.52039457  0.84557191  0.89639621    -0.09400
C2729       C  0.52194758  0.84735410  0.85121804     0.00200
C2730       C  0.51808736  0.86430400  0.83097855     0.00100
C2731       C  0.51400506  0.87937641  0.85758442    -0.12900
C2732       C  0.51255035  0.87751022  0.90279822     0.00600
C2733       C  0.52732433  0.83142248  0.82690662     0.39900
C2734       C  0.50783323  0.89323093  0.92862453     0.36500
C2735       C  0.54525810  0.85931370  0.98375301     0.36200
C2736       C  0.47240269  0.85080061  0.04306480     0.37000
N2737       N  0.53169520  0.81859815  0.80771557    -0.43800
N2738       N  0.50409610  0.90581696  0.94940995    -0.44300
N2739       N  0.45742016  0.84952327  0.05400324    -0.41600
N2740       N  0.56002506  0.86132250  0.97182368    -0.43100
H2741       H  0.53484841  0.85412333  0.06504178     0.13100
H2742       H  0.48330912  0.85545477  0.96206005     0.09600
H2743       H  0.52283262  0.83246256  0.91161917     0.10700
H2744       H  0.51112920  0.89251650  0.84303913     0.16500
C2745       C  0.51583682  0.87204814  0.40502696    -0.01700
C2746       C  0.51641267  0.85436642  0.42273250     0.06900
C2747       C  0.51839204  0.83938630  0.39506810    -0.07700
C2748       C  0.51932910  0.84171568  0.34991541     0.04300
C2749       C  0.51804345  0.85945311  0.33171818    -0.14900
C2750       C  0.51671262  0.87445152  0.36001147    -0.08300
C2751       C  0.51419094  0.85124504  0.46996718     0.05200
C2752       C  0.49800019  0.84354021  0.48534651    -0.09400
C2753       C  0.49451467  0.84205986  0.53004876     0.00200
C2754       C  0.50758507  0.84821941  0.56027898     0.00100
C2755       C  0.52420263  0.85507204  0.54427391    -0.12900
C2756       C  0.52751662  0.85671110  0.49972043     0.00600
C2757       C  0.47719971  0.83475529  0.54346016     0.39900
C2758       C  0.54450024  0.86448663  0.48525317     0.36500
C2759       C  0.51357062  0.88788955  0.43231243     0.36200
C2760       C  0.52115061  0.82554785  0.32356226     0.37000
N2761       N  0.46328713  0.82894438  0.55412102    -0.43800
N2762       N  0.55803413  0.87084026  0.47359882    -0.44300
N2763       N  0.52264755  0.81253778  0.30266063    -0.41600
N2764       N  0.51182876  0.90056906  0.45422832    -0.43100
H2765       H  0.51568908  0.88814120  0.34702161     0.13100
H2766       H  0.51894843  0.82579644  0.40885767     0.09600
H2767       H  0.48777259  0.83927289  0.46225683     0.10700
H2768       H  0.53453375  0.85979140  0.56654928     0.16500
C2769       C  0.28026657  0.97804282  0.02172126    -0.01700
C2770       C  0.26603465  0.98774731  0.00184261     0.06900
C2771       C  0.26961818  0.99803605  0.96435984    -0.07700
C2772       C  0.28718500  0.99922018  0.94722147     0.04300
C2773       C  0.30160937  0.98984610  0.96767458    -0.14900
C2774       C  0.29783439  0.97901937  0.00435571    -0.08300
C2775       C  0.24752405  0.98834033  0.02087429     0.05200
C2776       C  0.24493611  0.99704986  0.06098036    -0.09400
C2777       C  0.22751737  0.99936611  0.07838425     0.00200
C2778       C  0.21227959  0.99303547  0.05523972     0.00100
C2779       C  0.21495137  0.98370881  0.01587301    -0.12900
C2780       C  0.23239223  0.98136715  0.99854722     0.00600
C2781       C  0.22571233  0.00771361  0.12066323     0.39900
C2782       C  0.23447708  0.97167656  0.95801874     0.36500
C2783       C  0.27717753  0.96712307  0.06011539     0.36200
C2784       C  0.28989964  0.01005586  0.90848329     0.37000
N2785       N  0.22426087  0.01426815  0.15469671    -0.43800
N2786       N  0.23617069  0.96386252  0.92560750    -0.44300
N2787       N  0.29204061  0.01876610  0.87748214    -0.41600
N2788       N  0.27471315  0.95840394  0.09095670    -0.43100
H2789       H  0.30874182  0.97179140  0.02043494     0.13100
H2790       H  0.25868666  0.00551673  0.94901750     0.09600
H2791       H  0.25656326  0.00228954  0.07841675     0.10700
H2792       H  0.20335319  0.97861544  0.99808409     0.16500
C2793       C  0.41121153  0.07710604  0.91610335    -0.01700
C2794       C  0.42487228  0.07327357  0.88524745     0.06900
C2795       C  0.42578588  0.05588377  0.86662341    -0.07700
C2796       C  0.41355014  0.04221924  0.87900802     0.04300
C2797       C  0.40012841  0.04590186  0.91083536    -0.14900
C2798       C  0.39888059  0.06351136  0.92831296    -0.08300
C2799       C  0.43886776  0.08693921  0.87344841     0.05200
C2800       C  0.45656110  0.08449123  0.88874877    -0.09400
C2801       C  0.47030875  0.09692588  0.87832249     0.00200
C2802       C  0.46644050  0.11220249  0.85168847     0.00100
C2803       C  0.44855703  0.11471687  0.83699269    -0.12900
C2804       C  0.43485866  0.10220188  0.84741333     0.00600
C2805       C  0.48811246  0.09375937  0.89620737     0.39900
C2806       C  0.41693500  0.10492983  0.82987068     0.36500
C2807       C  0.41015658  0.09461365  0.93720315     0.36200
C2808       C  0.41484578  0.02469376  0.85790875     0.37000
N2809       N  0.50236028  0.09118831  0.91060094    -0.43800
N2810       N  0.40256907  0.10705260  0.81575711    -0.44300
N2811       N  0.41585346  0.01067838  0.84090717    -0.41600
N2812       N  0.40936426  0.10862714  0.95424178    -0.43100
H2813       H  0.38871278  0.06646842  0.95287193     0.13100
H2814       H  0.43619020  0.05296297  0.84260253     0.09600
H2815       H  0.45960979  0.07281742  0.90909798     0.10700
H2816       H  0.44533847  0.12620768  0.81623984     0.16500
C2817       C  0.41636392  0.94343100  0.82175796    -0.01700
C2818       C  0.41993206  0.92721782  0.84539786     0.06900
C2819       C  0.41760108  0.92771997  0.89082617    -0.07700
C2820       C  0.41115609  0.94334878  0.91164998     0.04300
C2821       C  0.40417454  0.95789763  0.88697437    -0.14900
C2822       C  0.40721429  0.95795319  0.84191345    -0.08300
C2823       C  0.42752123  0.91029842  0.82456800     0.05200
C2824       C  0.44110977  0.90042023  0.84639528    -0.09400
C2825       C  0.44971408  0.88560696  0.82676474     0.00200
C2826       C  0.44620005  0.88145475  0.78291078     0.00100
C2827       C  0.43127374  0.88970432  0.76270566    -0.12900
C2828       C  0.42149550  0.90356504  0.78381951     0.00600
C2829       C  0.46249641  0.87505884  0.85179805     0.39900
C2830       C  0.40545819  0.91054893  0.76278906     0.36500
C2831       C  0.42361030  0.94628435  0.77862708     0.36200
C2832       C  0.41316586  0.94458151  0.95803399     0.37000
N2833       N  0.47241044  0.86626632  0.87194937    -0.43800
N2834       N  0.39263822  0.91610723  0.74571778    -0.44300
N2835       N  0.41594264  0.94591640  0.99482153    -0.41600
N2836       N  0.42989753  0.94862809  0.74454112    -0.43100
H2837       H  0.40304327  0.96963543  0.82279540     0.13100
H2838       H  0.42116047  0.91605364  0.91058818     0.09600
H2839       H  0.44561061  0.90453835  0.87836418     0.10700
H2840       H  0.42796877  0.88622196  0.72940423     0.16500
C2841       C  0.40408807  0.95095154  0.09335533    -0.01700
C2842       C  0.40445542  0.93185573  0.08757212     0.06900
C2843       C  0.39069506  0.92375336  0.06240160    -0.07700
C2844       C  0.37834790  0.93448681  0.03870298     0.04300
C2845       C  0.37884028  0.95363352  0.04257579    -0.14900
C2846       C  0.39085966  0.96134807  0.07290170    -0.08300
C2847       C  0.41976817  0.92070470  0.10523804     0.05200
C2848       C  0.42540833  0.92373693  0.14815662    -0.09400
C2849       C  0.44126614  0.91595448  0.16442895     0.00200
C2850       C  0.45114857  0.90329575  0.13890881     0.00100
C2851       C  0.44522002  0.89974646  0.09636872    -0.12900
C2852       C  0.42993632  0.90848735  0.07916708     0.00600
C2853       C  0.44692821  0.92149243  0.20735168     0.39900
C2854       C  0.42533809  0.90479590  0.03446484     0.36500
C2855       C  0.41834908  0.96073256  0.11546709     0.36200
C2856       C  0.36610713  0.92559509  0.00912601     0.37000
N2857       N  0.45146773  0.92607937  0.24160918    -0.43800
N2858       N  0.42167838  0.90162155  0.99871998    -0.44300
N2859       N  0.35637477  0.91843306  0.98522077    -0.41600
N2860       N  0.42977054  0.96863389  0.13290221    -0.43100
H2861       H  0.39146346  0.97599535  0.07714578     0.13100
H2862       H  0.39027552  0.90907484  0.05908447     0.09600
H2863       H  0.41764202  0.93279565  0.16887977     0.10700
H2864       H  0.45258992  0.89011453  0.07626566     0.16500
C2865       C  0.23143816  0.98328079  0.50256399    -0.01700
C2866       C  0.24471249  0.99435252  0.52203667     0.06900
C2867       C  0.23982205  0.00533466  0.55738545    -0.07700
C2868       C  0.22197758  0.00547241  0.57346504     0.04300
C2869       C  0.20853964  0.99429549  0.55417080    -0.14900
C2870       C  0.21360137  0.98320762  0.51883481    -0.08300
C2871       C  0.26381508  0.99456390  0.50612646     0.05200
C2872       C  0.26841233  0.00549590  0.47037117    -0.09400
C2873       C  0.28625686  0.00603409  0.45436138     0.00200
C2874       C  0.29993825  0.99519163  0.47391521     0.00100
C2875       C  0.29519855  0.98420446  0.50970365    -0.12900
C2876       C  0.27739803  0.98400146  0.52612912     0.00600
C2877       C  0.28995341  0.01759435  0.41729636     0.39900
C2878       C  0.27334889  0.97297081  0.56380459     0.36500
C2879       C  0.23588582  0.97191634  0.46578318     0.36200
C2880       C  0.21805908  0.01691576  0.61048974     0.37000
N2881       N  0.29293951  0.02690606  0.38771431    -0.43800
N2882       N  0.27006158  0.96422424  0.59415932    -0.44300
N2883       N  0.21492031  0.02609947  0.64013380    -0.41600
N2884       N  0.23953875  0.96286781  0.43624516    -0.43100
H2885       H  0.20352855  0.97469104  0.50331725     0.13100
H2886       H  0.25002689  0.01383226  0.57249957     0.09600
H2887       H  0.25799974  0.01367344  0.45499067     0.10700
H2888       H  0.30549793  0.97602969  0.52549418     0.16500
C2889       C  0.41494543  0.07384258  0.41490586    -0.01700
C2890       C  0.42417340  0.07182741  0.37486997     0.06900
C2891       C  0.42108520  0.05613916  0.34986269    -0.07700
C2892       C  0.40932069  0.04241778  0.36456433     0.04300
C2893       C  0.40045637  0.04426847  0.40507911    -0.14900
C2894       C  0.40307572  0.06020805  0.42937878    -0.08300
C2895       C  0.43831707  0.08502015  0.36047670     0.05200
C2896       C  0.45627983  0.07893753  0.35747345    -0.09400
C2897       C  0.47037955  0.09079625  0.34599775     0.00200
C2898       C  0.46666349  0.10941822  0.33735077     0.00100
C2899       C  0.44849215  0.11536441  0.33962020    -0.12900
C2900       C  0.43439322  0.10336932  0.35069242     0.00600
C2901       C  0.48841044  0.08321177  0.34320059     0.39900
C2902       C  0.41598942  0.11010120  0.35080105     0.36500
C2903       C  0.41811055  0.08931912  0.44274864     0.36200
C2904       C  0.40610131  0.02687037  0.33696330     0.37000
N2905       N  0.50282193  0.07703657  0.34089046    -0.43800
N2906       N  0.40125175  0.11552153  0.35086207    -0.44300
N2907       N  0.40339464  0.01445779  0.31479033    -0.41600
N2908       N  0.42062988  0.10174179  0.46501108    -0.43100
H2909       H  0.39628329  0.06173776  0.46051059     0.13100
H2910       H  0.42805178  0.05454174  0.31897820     0.09600
H2911       H  0.45933564  0.06479678  0.36464201     0.10700
H2912       H  0.44518958  0.12944165  0.33251240     0.16500
C2913       C  0.42290031  0.93467349  0.36418440    -0.01700
C2914       C  0.41284881  0.92059703  0.34408236     0.06900
C2915       C  0.39405799  0.92273903  0.34000635    -0.07700
C2916       C  0.38533602  0.93864721  0.35368684     0.04300
C2917       C  0.39523070  0.95247403  0.37543889    -0.14900
C2918       C  0.41400903  0.95016222  0.38054396    -0.08300
C2919       C  0.42180419  0.90417908  0.32470260     0.05200
C2920       C  0.43419531  0.89397726  0.34949873    -0.09400
C2921       C  0.44558790  0.88107440  0.32972491     0.00200
C2922       C  0.44439319  0.87796941  0.28455825     0.00100
C2923       C  0.43009617  0.88601548  0.26142798    -0.12900
C2924       C  0.41904590  0.89924365  0.28074424     0.00600
C2925       C  0.45878417  0.87162597  0.35599299     0.39900
C2926       C  0.40633076  0.90878760  0.25328661     0.36500
C2927       C  0.44242126  0.93389202  0.36709182     0.36200
C2928       C  0.36604633  0.93987624  0.34609511     0.37000
N2929       N  0.46928988  0.86392709  0.37698318    -0.43800
N2930       N  0.39606174  0.91642463  0.23151480    -0.44300
N2931       N  0.35062489  0.94084209  0.33968103    -0.41600
N2932       N  0.45806812  0.93321317  0.36925977    -0.43100
H2933       H  0.42182031  0.96059787  0.39686767     0.13100
H2934       H  0.38609927  0.91194676  0.32549701     0.09600
H2935       H  0.43568528  0.89682725  0.38387971     0.10700
H2936       H  0.42883616  0.88359267  0.22678083     0.16500
C2937       C  0.37036330  0.00929767  0.64820186    -0.01700
C2938       C  0.35360340  0.01436321  0.66695349     0.06900
C2939       C  0.34072279  0.02319264  0.64099627    -0.07700
C2940       C  0.34383833  0.02604470  0.59648250     0.04300
C2941       C  0.36010727  0.01976026  0.57678853    -0.14900
C2942       C  0.37340759  0.01182451  0.60351892    -0.08300
C2943       C  0.34962320  0.01131179  0.71398146     0.05200
C2944       C  0.34659214  0.02643185  0.74076084    -0.09400
C2945       C  0.34462553  0.02441430  0.78582898     0.00200
C2946       C  0.34597885  0.00692085  0.80515614     0.00100
C2947       C  0.34756747  0.99166131  0.77784805    -0.12900
C2948       C  0.34924184  0.99371545  0.73261962     0.00600
C2949       C  0.34113311  0.04058117  0.81122581     0.39900
C2950       C  0.35058805  0.97759016  0.70599028     0.36500
C2951       C  0.38477523  0.00188961  0.67450462     0.36200
C2952       C  0.33009514  0.03558490  0.57207774     0.37000
N2953       N  0.33826500  0.05353214  0.83151692    -0.43800
N2954       N  0.35163192  0.96466755  0.68464275    -0.44300
N2955       N  0.31911973  0.04328677  0.55252694    -0.41600
N2956       N  0.39625268  0.99610474  0.69603010    -0.43100
H2957       H  0.38604030  0.00708053  0.58937113     0.13100
H2958       H  0.32807159  0.02770045  0.65552426     0.09600
H2959       H  0.34624767  0.03994398  0.72649196     0.10700
H2960       H  0.34819851  0.97812515  0.79188736     0.16500
C2961       C  0.34859497  0.99554589  0.23445445    -0.01700
C2962       C  0.34618875  0.01289435  0.21550748     0.06900
C2963       C  0.34128409  0.02758481  0.24211930    -0.07700
C2964       C  0.33976534  0.02544654  0.28734119     0.04300
C2965       C  0.34315135  0.00829682  0.30672188    -0.14900
C2966       C  0.34702356  0.99336426  0.27968498    -0.08300
C2967       C  0.34944487  0.01613659  0.16829687     0.05200
C2968       C  0.33466410  0.01853170  0.14043219    -0.09400
C2969       C  0.33721789  0.02084783  0.09545316     0.00200
C2970       C  0.35502017  0.02104085  0.07746963     0.00100
C2971       C  0.36979331  0.01930286  0.10611289    -0.12900
C2972       C  0.36714065  0.01681432  0.15092670     0.00600
C2973       C  0.32119300  0.02241116  0.06887840     0.39900
C2974       C  0.38279477  0.01481041  0.17856773     0.36500
C2975       C  0.35294372  0.97987457  0.20809580     0.36200
C2976       C  0.33450187  0.04101798  0.31307188     0.37000
N2977       N  0.30828812  0.02359811  0.04778278    -0.43800
N2978       N  0.39529732  0.01318301  0.20084014    -0.44300
N2979       N  0.33019484  0.05346138  0.33372088    -0.41600
N2980       N  0.35639360  0.96732526  0.18690138    -0.43100
H2981       H  0.34961060  0.98012053  0.29404125     0.13100
H2982       H  0.33907493  0.04086464  0.22759744     0.09600
H2983       H  0.32104094  0.01814668  0.15379618     0.10700
H2984       H  0.38352417  0.01930195  0.09343390     0.16500
C2985       C  0.43644332  0.92965644  0.60778395    -0.01700
C2986       C  0.42020411  0.92024266  0.59790587     0.06900
C2987       C  0.41959803  0.90134768  0.60418163    -0.07700
C2988       C  0.43462371  0.89182638  0.62005889     0.04300
C2989       C  0.45075408  0.90124766  0.63064749    -0.14900
C2990       C  0.45137107  0.92018156  0.62491127    -0.08300
C2991       C  0.40415308  0.92947888  0.57815412     0.05200
C2992       C  0.39774425  0.92335960  0.53777028    -0.09400
C2993       C  0.38430238  0.93299288  0.51516393     0.00200
C2994       C  0.37734559  0.94939877  0.53249736     0.00100
C2995       C  0.38217810  0.95417689  0.57522438    -0.12900
C2996       C  0.39530655  0.94433098  0.59813874     0.00600
C2997       C  0.37870721  0.92612745  0.47347107     0.39900
C2998       C  0.39963217  0.95004075  0.64168207     0.36500
C2999       C  0.43846764  0.94884571  0.59876947     0.36200
C3000       C  0.43281802  0.87242610  0.62669904     0.37000
N3001       N  0.37412803  0.92016390  0.44052715    -0.43800
N3002       N  0.40288655  0.95482073  0.67657851    -0.44300
N3003       N  0.43136390  0.85688816  0.63197937    -0.41600
N3004       N  0.44013851  0.96422225  0.59151754    -0.43100
H3005       H  0.46366629  0.92751305  0.63292310     0.13100
H3006       H  0.40727532  0.89397604  0.59658748     0.09600
H3007       H  0.40386130  0.91146069  0.52286483     0.10700
H3008       H  0.37656320  0.96641838  0.58972372     0.16500
loop_ 
_geom_bond_atom_site_label_1 
_geom_bond_atom_site_label_2 
_geom_bond_distance 
_geom_bond_site_symmetry_2 
_ccdc_geom_bond_type 
O1          Cr19   2.022   1_545  S
O1            C9   1.273       .  A
O2          Cr19   1.953       .  S
O2            C3   1.254       .  A
C3            O4   1.272       .  A
C3         C2994   1.488       .  S
O4          Cr20   2.044       .  S
O5          Cr20   1.996       .  S
O5            C6   1.263       .  A
C6            O7   1.262   1_565  A
C6         C2874   1.492       .  S
O7          Cr21   2.002       .  S
O8          Cr21   1.969       .  S
O8            C9   1.261       .  A
C9         C2941   1.493       .  S
O10         Cr19   1.986   1_545  S
O10          C18   1.261       .  A
O11         Cr19   2.032       .  S
O11          C12   1.270       .  A
C12          O13   1.255       .  A
C12        C2917   1.491       .  S
O13         Cr20   1.961       .  S
O14         Cr20   2.031       .  S
O14          C15   1.276   1_565  A
C15          O16   1.264       .  A
C15        C2965   1.487       .  S
O16         Cr21   1.968       .  S
O17         Cr21   2.010       .  S
O17          C18   1.264       .  A
C18        C2893   1.480       .  S
Cr19         O22   1.763       .  S
Cr20         O22   1.763       .  S
Cr21         O22   1.768   1_545  S
O23         Cr41   2.010   1_544  S
O23          C31   1.267       .  A
O24         Cr41   1.948   1_554  S
O24          C25   1.250       .  A
C25          O26   1.273   1_554  A
C25        C2845   1.491       .  S
O26         Cr42   2.052       .  S
O27         Cr42   1.982       .  S
O27          C28   1.261       .  A
C28          O29   1.264   1_565  A
C28        C2773   1.483       .  S
O29         Cr43   2.003       .  S
O30         Cr43   1.983   1_554  S
O30          C31   1.259       .  A
C31        C2970   1.499       .  S
O32         Cr41   1.967   1_545  S
O32          C40   1.259       .  A
O33         Cr41   2.026       .  S
O33          C34   1.269       .  A
C34          O35   1.258       .  A
C34        C2821   1.483       .  S
O35         Cr42   1.975       .  S
O36         Cr42   2.033       .  S
O36          C37   1.276   1_565  A
C37          O38   1.262       .  A
C37        C2946   1.490       .  S
O38         Cr43   1.961       .  S
O39         Cr43   2.023       .  S
O39          C40   1.271       .  A
C40        C2797   1.481       .  S
Cr41         O44   1.753       .  S
Cr42         O44   1.764       .  S
Cr43         O44   1.763   1_545  S
O45         Cr63   1.971       .  S
O45          C53   1.259       .  A
O46         Cr63   2.012       .  S
O46          C47   1.266       .  A
C47          O48   1.260       .  A
C47        C2677   1.496       .  S
O48         Cr64   1.982       .  S
O49         Cr64   2.018       .  S
O49          C50   1.269       .  A
C50          O51   1.259       .  A
C50        C2922   1.482       .  S
O51         Cr65   1.973       .  S
O52         Cr65   2.005       .  S
O52          C53   1.267       .  A
C53        C2749   1.488       .  S
O54         Cr63   2.021       .  S
O54          C62   1.268       .  A
O55         Cr63   1.961       .  S
O55          C56   1.261       .  A
C56          O57   1.271       .  A
C56        C2725   1.487       .  S
O57         Cr64   2.019       .  S
O58         Cr64   1.975       .  S
O58          C59   1.260       .  A
C59          O60   1.265       .  A
C59        C2850   1.488       .  S
O60         Cr65   2.003       .  S
O61         Cr65   1.977       .  S
O61          C62   1.260       .  A
C62        C2701   1.492       .  S
Cr63         O66   1.768       .  S
Cr64         O66   1.767       .  S
Cr65         O66   1.760       .  S
O67         Cr85   1.969       .  S
O67          C75   1.259       .  A
O68         Cr85   2.009       .  S
O68          C69   1.265       .  A
C69          O70   1.259       .  A
C69        C2629   1.491       .  S
O70         Cr86   1.980       .  S
O71         Cr86   2.037       .  S
O71          C72   1.271       .  A
C72          O73   1.255       .  A
C72        C2826   1.479       .  S
O73         Cr87   1.951       .  S
O74         Cr87   2.016       .  S
O74          C75   1.269       .  A
C75        C2730   1.490       .  S
O76         Cr85   2.015       .  S
O76          C84   1.267       .  A
O77         Cr85   1.952       .  S
O77          C78   1.260       .  A
C78          O79   1.273       .  A
C78        C2754   1.489       .  S
O79         Cr86   2.025       .  S
O80         Cr86   1.966       .  S
O80          C81   1.257       .  A
C81          O82   1.268       .  A
C81        C2989   1.483       .  S
O82         Cr87   2.026       .  S
O83         Cr87   1.974       .  S
O83          C84   1.261       .  A
C84        C2653   1.491       .  S
Cr85         O88   1.766       .  S
Cr86         O88   1.766       .  S
Cr87         O88   1.760       .  S
O89        Cr107   2.010       .  S
O89          C97   1.266       .  A
O90        Cr107   1.953       .  S
O90          C91   1.253       .  A
C91          O92   1.274       .  A
C91        C2605   1.492       .  S
O92        Cr108   2.047       .  S
O93        Cr108   1.985       .  S
O93          C94   1.260       .  A
C94          O95   1.264       .  A
C94        C2514   1.478       .  S
O95        Cr109   2.004       .  S
O96        Cr109   1.975       .  S
O96          C97   1.260       .  A
C97        C2581   1.488       .  S
O98        Cr107   1.974       .  S
O98         C106   1.261       .  A
O99        Cr107   2.027       .  S
O99         C100   1.270       .  A
C100        O101   1.258       .  A
C100       C2533   1.489       .  S
O101       Cr108   1.971       .  S
O102       Cr108   2.032       .  S
O102        C103   1.275       .  A
C103        O104   1.263       .  A
C103       C2562   1.498       .  S
O104       Cr109   1.964       .  S
O105       Cr109   2.021       .  S
O105        C106   1.270       .  A
C106       C2898   1.497       .  S
Cr107       O110   1.759       .  S
Cr108       O110   1.769       .  S
Cr109       O110   1.767       .  S
O111       Cr129   2.009       .  S
O111        C119   1.266       .  A
O112       Cr129   1.943       .  S
O112        C113   1.248       .  A
C113        O114   1.273       .  A
C113       C2485   1.493       .  S
O114       Cr130   2.058       .  S
O115       Cr130   1.990       .  S
O115        C116   1.262       .  A
C116        O117   1.266       .  A
C116       C2437   1.491       .  S
O117       Cr131   2.009       .  S
O118       Cr131   1.987       .  S
O118        C119   1.263       .  A
C119       C2557   1.497       .  S
O120       Cr129   1.968       .  S
O120        C128   1.260       .  A
O121       Cr129   2.037       .  S
O121        C122   1.270       .  A
C122        O123   1.255       .  A
C122       C2461   1.483       .  S
O123       Cr130   1.960       .  S
O124       Cr130   2.031       .  S
O124        C125   1.276       .  A
C125        O126   1.264       .  A
C125       C2586   1.491       .  S
O126       Cr131   1.961       .  S
O127       Cr131   2.027       .  S
O127        C128   1.272       .  A
C128       C2802   1.489       .  S
Cr129       O132   1.754       .  S
Cr130       O132   1.768       .  S
Cr131       O132   1.761       .  S
O133       Cr151   1.970       .  S
O133        C141   1.259   1_554  A
O134       Cr151   2.011   1_545  S
O134        C135   1.266       .  A
C135        O136   1.259       .  A
C135       C2370   1.496       .  S
O136       Cr152   1.981       .  S
O137       Cr152   2.031       .  S
O137        C138   1.270       .  A
C138        O139   1.254   1_554  A
C138       C2466   1.481   1_554  S
O139       Cr153   1.961   1_556  S
O140       Cr153   2.023   1_556  S
O140        C141   1.272   1_545  A
C141       C2389   1.497       .  S
O142       Cr151   2.018       .  S
O142        C150   1.268       .  A
O143       Cr151   1.965       .  S
O143        C144   1.262   1_565  A
C144        O145   1.275       .  A
C144       C2418   1.492       .  S
O145       Cr152   2.030       .  S
O146       Cr152   1.965       .  S
O146        C147   1.258       .  A
C147        O148   1.270       .  A
C147       C2610   1.483       .  S
O148       Cr153   2.032       .  S
O149       Cr153   1.980       .  S
O149        C150   1.261   1_545  A
C150       C2706   1.494       .  S
Cr151       O154   1.766   1_565  S
Cr152       O154   1.766       .  S
Cr153       O154   1.764       .  S
O155       Cr173   1.985       .  S
O155        C163   1.262       .  A
O156       Cr173   2.005   1_545  S
O156        C157   1.265       .  A
C157        O158   1.261       .  A
C157       C2341   1.489       .  S
O158       Cr174   1.979       .  S
O159       Cr174   2.052       .  S
O159        C160   1.274       .  A
C160        O161   1.253       .  A
C160       C2538   1.498       .  S
O161       Cr175   1.951       .  S
O162       Cr175   2.004   1_565  S
O162        C163   1.265       .  A
C163       C2413   1.493       .  S
O164       Cr173   2.025       .  S
O164        C172   1.270       .  A
O165       Cr173   1.969       .  S
O165        C166   1.264   1_565  A
C166        O167   1.275       .  A
C166       C2394   1.491       .  S
O167       Cr174   2.029       .  S
O168       Cr174   1.964       .  S
O168        C169   1.256       .  A
C169        O170   1.267       .  A
C169       C2490   1.483       .  S
O170       Cr175   2.020       .  S
O171       Cr175   1.964       .  S
O171        C172   1.259   1_545  A
C172       C2658   1.482       .  S
Cr173       O176   1.766   1_565  S
Cr174       O176   1.763       .  S
Cr175       O176   1.755       .  S
O177       Cr195   2.002       .  S
O177        C185   1.265   1_554  A
O178       Cr195   1.951   1_565  S
O178        C179   1.251       .  A
C179        O180   1.269       .  A
C179       C2317   1.490   1_554  S
O180       Cr196   2.040       .  S
O181       Cr196   1.974       .  S
O181        C182   1.259       .  A
C182        O183   1.267   1_565  A
C182       C2778   1.479       .  S
O183       Cr197   2.014       .  S
O184       Cr197   1.997       .  S
O184        C185   1.261   1_554  A
C185       C2269   1.502       .  S
O186       Cr195   1.959       .  S
O186        C194   1.258       .  A
O187       Cr195   2.020   1_565  S
O187        C188   1.269       .  A
C188        O189   1.258       .  A
C188       C2245   1.486       .  S
O189       Cr196   1.965       .  S
O190       Cr196   2.024       .  S
O190        C191   1.273   1_565  A
C191        O192   1.264       .  A
C191       C2298   1.491       .  S
O192       Cr197   1.972       .  S
O193       Cr197   2.037       .  S
O193        C194   1.274       .  A
C194       C2226   1.479       .  S
Cr195       O198   1.755       .  S
Cr196       O198   1.767   1_565  S
Cr197       O198   1.766       .  S
O199       Cr217   2.019   1_545  S
O199        C207   1.270       .  A
O200       Cr217   1.955       .  S
O200        C201   1.253       .  A
C201        O202   1.274       .  A
C201       C2202   1.493       .  S
O202       Cr218   2.054       .  S
O203       Cr218   1.996       .  S
O203        C204   1.262       .  A
C204        O205   1.263   1_565  A
C204       C2869   1.495       .  S
O205       Cr219   2.007       .  S
O206       Cr219   1.971       .  S
O206        C207   1.260       .  A
C207       C2293   1.496       .  S
O208       Cr217   1.974   1_545  S
O208        C216   1.260       .  A
O209       Cr217   2.028       .  S
O209        C210   1.269       .  A
C210        O211   1.258       .  A
C210       C2173   1.477       .  S
O211       Cr218   1.963       .  S
O212       Cr218   2.054       .  S
O212        C213   1.281   1_565  A
C213        O214   1.260       .  A
C213       C2274   1.500       .  S
O214       Cr219   1.958       .  S
O215       Cr219   2.016       .  S
O215        C216   1.268       .  A
C216       C2149   1.487       .  S
Cr217       O220   1.764       .  S
Cr218       O220   1.769       .  S
Cr219       O220   1.767   1_545  S
O221       Cr239   1.979       .  S
O221        C229   1.258       .  A
O222       Cr239   2.006   1_455  S
O222        C223   1.267       .  A
C223        O224   1.262       .  A
C223       C2053   1.481       .  S
O224       Cr240   1.983       .  S
O225       Cr240   2.059       .  S
O225        C226   1.271       .  A
C226        O227   1.245       .  A
C226       C2250   1.490       .  S
O227       Cr241   1.952       .  S
O228       Cr241   2.015   1_655  S
O228        C229   1.265       .  A
C229       C2125   1.488       .  S
O230       Cr239   2.017       .  S
O230        C238   1.270       .  A
O231       Cr239   1.967       .  S
O231        C232   1.261   1_655  A
C232        O233   1.274       .  A
C232       C2101   1.492       .  S
O233       Cr240   2.027       .  S
O234       Cr240   1.965       .  S
O234        C235   1.256       .  A
C235        O236   1.273       .  A
C235       C2197   1.479       .  S
O236       Cr241   2.047       .  S
O237       Cr241   1.960   1_655  S
O237        C238   1.260       .  A
C238       C2082   1.477       .  S
Cr239       O242   1.762   1_655  S
Cr240       O242   1.771       .  S
Cr241       O242   1.754       .  S
O243       Cr261   2.023       .  S
O243        C251   1.271       .  A
O244       Cr261   1.975   1_455  S
O244        C245   1.255       .  A
C245        O246   1.259       .  A
C245       C2005   1.481       .  S
O246       Cr262   1.997       .  S
O247       Cr262   1.999       .  S
O247        C248   1.265       .  A
C248        O249   1.262       .  A
C248       C2178   1.465       .  S
O249       Cr263   1.980       .  S
O250       Cr263   1.956       .  S
O250        C251   1.258   1_455  A
C251       C2106   1.489       .  S
O252       Cr261   1.981       .  S
O252        C260   1.257       .  A
O253       Cr261   2.019       .  S
O253        C254   1.272   1_655  A
C254        O255   1.264       .  A
C254       C2130   1.489       .  S
O255       Cr262   1.968       .  S
O256       Cr262   1.995       .  S
O256        C257   1.261       .  A
C257        O258   1.262       .  A
C257       C2322   1.466       .  S
O258       Cr263   1.987       .  S
O259       Cr263   1.995   1_655  S
O259        C260   1.260       .  A
C260       C2034   1.489       .  S
Cr261       O264   1.776   1_655  S
Cr262       O264   1.778       .  S
Cr263       O264   1.772       .  S
O265       Cr283   2.030   1_455  S
O265        C273   1.273       .  A
O266       Cr283   1.933       .  S
O266        C267   1.245       .  A
C267        O268   1.276       .  A
C267       C1909   1.498       .  S
O268       Cr284   2.066       .  S
O269       Cr284   1.978       .  S
O269        C270   1.261       .  A
C270        O271   1.264   1_655  A
C270       C1885   1.484       .  S
O271       Cr285   2.005       .  S
O272       Cr285   1.963       .  S
O272        C273   1.258       .  A
C273       C1962   1.479       .  S
O274       Cr283   1.976   1_455  S
O274        C282   1.261       .  A
O275       Cr283   2.054       .  S
O275        C276   1.275       .  A
C276        O277   1.252       .  A
C276       C1981   1.495       .  S
O277       Cr284   1.952       .  S
O278       Cr284   2.037       .  S
O278        C279   1.278   1_655  A
C279        O280   1.260       .  A
C279       C1933   1.492       .  S
O280       Cr285   1.949       .  S
O281       Cr285   2.021       .  S
O281        C282   1.269       .  A
C282       C2221   1.495       .  S
Cr283       O286   1.756       .  S
Cr284       O286   1.766       .  S
Cr285       O286   1.763   1_455  S
O287       Cr305   2.017   1_455  S
O287        C295   1.270       .  A
O288       Cr305   1.964       .  S
O288        C289   1.254       .  A
C289        O290   1.266       .  A
C289       C1837   1.477       .  S
O290       Cr306   2.016       .  S
O291       Cr306   1.982       .  S
O291        C292   1.259       .  A
C292        O293   1.267   1_655  A
C292       C1818   1.487       .  S
O293       Cr307   2.020       .  S
O294       Cr307   1.961       .  S
O294        C295   1.257       .  A
C295       C1938   1.492       .  S
O296       Cr305   1.972   1_455  S
O296        C304   1.260       .  A
O297       Cr305   2.034       .  S
O297        C298   1.272       .  A
C298        O299   1.260       .  A
C298       C1866   1.484       .  S
O299       Cr306   1.967       .  S
O300       Cr306   2.019       .  S
O300        C301   1.272   1_655  A
C301        O302   1.259       .  A
C301       C1957   1.471       .  S
O302       Cr307   1.957       .  S
O303       Cr307   2.025       .  S
O303        C304   1.269       .  A
C304       C2154   1.486       .  S
Cr305       O308   1.766       .  S
Cr306       O308   1.767       .  S
Cr307       O308   1.774   1_455  S
O309       Cr327   1.972       .  S
O309        C317   1.260       .  A
O310       Cr327   2.008       .  S
O310        C311   1.266       .  A
C311        O312   1.259       .  A
C311       C2346   1.490       .  S
O312       Cr328   1.980       .  S
O313       Cr328   2.050       .  S
O313        C314   1.274       .  A
C314        O315   1.253       .  A
C314       C1861   1.494       .  S
O315       Cr329   1.953       .  S
O316       Cr329   2.011       .  S
O316        C317   1.268       .  A
C317       C1765   1.488   1_545  S
O318       Cr327   2.014   1_565  S
O318        C326   1.268       .  A
O319       Cr327   1.953       .  S
O319        C320   1.258       .  A
C320        O321   1.274       .  A
C320       C1794   1.473       .  S
O321       Cr328   2.034       .  S
O322       Cr328   1.975       .  S
O322        C323   1.256       .  A
C323        O324   1.271       .  A
C323       C1914   1.486       .  S
O324       Cr329   2.031       .  S
O325       Cr329   1.964       .  S
O325        C326   1.260   1_545  A
C326       C2077   1.476       .  S
Cr327       O330   1.765       .  S
Cr328       O330   1.767       .  S
Cr329       O330   1.756       .  S
O331       Cr349   1.971   1_554  S
O331        C339   1.259       .  A
O332       Cr349   2.008       .  S
O332        C333   1.266       .  A
C333        O334   1.264       .  A
C333       C2365   1.495       .  S
O334       Cr350   1.987       .  S
O335       Cr350   2.044       .  S
O335        C336   1.272   1_556  A
C336        O337   1.253       .  A
C336       C1986   1.486       .  S
O337       Cr351   1.963   1_554  S
O338       Cr351   2.020   1_554  S
O338        C339   1.269       .  A
C339       C1789   1.477       .  S
O340       Cr349   2.020   1_565  S
O340        C348   1.269       .  A
O341       Cr349   1.963       .  S
O341        C342   1.261       .  A
C342        O343   1.273       .  A
C342       C1770   1.483       .  S
O343       Cr350   2.024       .  S
O344       Cr350   1.956       .  S
O344        C345   1.255       .  A
C345        O346   1.270       .  A
C345       C1842   1.477       .  S
O346       Cr351   2.027       .  S
O347       Cr351   1.971       .  S
O347        C348   1.258   1_545  A
C348       C2029   1.489       .  S
Cr349       O352   1.766       .  S
Cr350       O352   1.766       .  S
Cr351       O352   1.765       .  S
O353       Cr371   2.016       .  S
O353        C361   1.268       .  A
O354       Cr371   1.949       .  S
O354        C355   1.251       .  A
C355        O356   1.269       .  A
C355       C1693   1.480       .  S
O356       Cr372   2.034       .  S
O357       Cr372   1.989       .  S
O357        C358   1.261       .  A
C358        O359   1.264       .  A
C358       C2509   1.489       .  S
O359       Cr373   2.003       .  S
O360       Cr373   1.984       .  S
O360        C361   1.263       .  A
C361       C1741   1.499       .  S
O362       Cr371   1.972       .  S
O362        C370   1.260       .  A
O363       Cr371   2.033       .  S
O363        C364   1.272       .  A
C364        O365   1.260       .  A
C364       C1669   1.493       .  S
O365       Cr372   1.973       .  S
O366       Cr372   2.025       .  S
O366        C367   1.274       .  A
C367        O368   1.263       .  A
C367       C1722   1.492       .  S
O368       Cr373   1.966       .  S
O369       Cr373   2.014       .  S
O369        C370   1.267       .  A
C370       C1645   1.476       .  S
Cr371       O374   1.760       .  S
Cr372       O374   1.774       .  S
Cr373       O374   1.768       .  S
O375       Cr393   2.023       .  S
O375        C383   1.271       .  A
O376       Cr393   1.948       .  S
O376        C377   1.249       .  A
C377        O378   1.270       .  A
C377       C1621   1.490       .  S
O378       Cr394   2.047       .  S
O379       Cr394   1.988       .  S
O379        C380   1.261       .  A
C380        O381   1.267       .  A
C380       C2442   1.502       .  S
O381       Cr395   2.016       .  S
O382       Cr395   1.968       .  S
O382        C383   1.260       .  A
C383       C1717   1.488       .  S
O384       Cr393   1.975       .  S
O384        C392   1.262       .  A
O385       Cr393   2.044       .  S
O385        C386   1.273       .  A
C386        O387   1.256       .  A
C386       C1602   1.480       .  S
O387       Cr394   1.955       .  S
O388       Cr394   2.037       .  S
O388        C389   1.277       .  A
C389        O390   1.262       .  A
C389       C1746   1.500       .  S
O390       Cr395   1.965       .  S
O391       Cr395   2.023       .  S
O391        C392   1.270       .  A
C392       C1573   1.492       .  S
Cr393       O396   1.759       .  S
Cr394       O396   1.770       .  S
Cr395       O396   1.762       .  S
O397       Cr415   2.026       .  S
O397        C405   1.271       .  A
O398       Cr415   1.981       .  S
O398        C399   1.257       .  A
C399        O400   1.257       .  A
C399       C1477   1.475       .  S
O400       Cr416   1.982       .  S
O401       Cr416   2.010       .  S
O401        C402   1.267       .  A
C402        O403   1.256       .  A
C402       C1597   1.469       .  S
O403       Cr417   1.973       .  S
O404       Cr417   1.978       .  S
O404        C405   1.263       .  A
C405       C1525   1.485       .  S
O406       Cr415   1.991       .  S
O406        C414   1.256       .  A
O407       Cr415   2.014       .  S
O407        C408   1.270       .  A
C408        O409   1.264       .  A
C408       C1549   1.490       .  S
O409       Cr416   1.981       .  S
O410       Cr416   1.971       .  S
O410        C411   1.260       .  A
C411        O412   1.273       .  A
C411       C1698   1.486       .  S
O412       Cr417   2.013       .  S
O413       Cr417   1.993       .  S
O413        C414   1.257       .  A
C414       C1506   1.479       .  S
Cr415       O418   1.776       .  S
Cr416       O418   1.771       .  S
Cr417       O418   1.773       .  S
O419       Cr437   1.985   1_554  S
O419        C427   1.260       .  A
O420       Cr437   2.016       .  S
O420        C421   1.268       .  A
C421        O422   1.262       .  A
C421       C1429   1.493       .  S
O422       Cr438   1.979       .  S
O423       Cr438   2.048       .  S
O423        C424   1.272       .  A
C424        O425   1.253   1_556  A
C424       C1674   1.498   1_556  S
O425       Cr439   1.960   1_554  S
O426       Cr439   2.012   1_554  S
O426        C427   1.269       .  A
C427       C1554   1.499       .  S
O428       Cr437   2.022       .  S
O428        C436   1.270       .  A
O429       Cr437   1.976       .  S
O429        C430   1.261       .  A
C430        O431   1.274       .  A
C430       C1530   1.485       .  S
O431       Cr438   2.033       .  S
O432       Cr438   1.971       .  S
O432        C433   1.258       .  A
C433        O434   1.273       .  A
C433       C1626   1.485       .  S
O434       Cr439   2.033       .  S
O435       Cr439   1.970       .  S
O435        C436   1.260       .  A
C436       C1458   1.486       .  S
Cr437       O440   1.766       .  S
Cr438       O440   1.766       .  S
Cr439       O440   1.759       .  S
O441       Cr459   2.011       .  S
O441        C449   1.268       .  A
O442       Cr459   1.955       .  S
O442        C443   1.253       .  A
C443        O444   1.267       .  A
C443       C1410   1.479       .  S
O444       Cr460   2.028       .  S
O445       Cr460   1.977       .  S
O445        C446   1.259       .  A
C446        O447   1.267       .  A
C446       C1309   1.487       .  S
O447       Cr461   2.015       .  S
O448       Cr461   1.988       .  S
O448        C449   1.261       .  A
C449       C1357   1.499   1_554  S
O450       Cr459   1.961       .  S
O450        C458   1.259       .  A
O451       Cr459   2.022       .  S
O451        C452   1.269       .  A
C452        O453   1.259       .  A
C452       C1333   1.476       .  S
O453       Cr460   1.966       .  S
O454       Cr460   2.021       .  S
O454        C455   1.273       .  A
C455        O456   1.264       .  A
C455       C1381   1.490       .  S
O456       Cr461   1.977       .  S
O457       Cr461   2.030       .  S
O457        C458   1.271       .  A
C458       C1650   1.489       .  S
Cr459       O462   1.759       .  S
Cr460       O462   1.768       .  S
Cr461       O462   1.769       .  S
O463       Cr481   2.015       .  S
O463        C471   1.269       .  A
O464       Cr481   1.949       .  S
O464        C465   1.246       .  A
C465        O466   1.272       .  A
C465       C1285   1.498       .  S
O466       Cr482   2.067       .  S
O467       Cr482   1.984       .  S
O467        C468   1.262       .  A
C468        O469   1.269       .  A
C468       C1242   1.495       .  S
O469       Cr483   2.023       .  S
O470       Cr483   1.969       .  S
O470        C471   1.257       .  A
C471       C1386   1.495       .  S
O472       Cr481   1.969       .  S
O472        C480   1.261       .  A
O473       Cr481   2.052       .  S
O473        C474   1.274       .  A
C474        O475   1.255       .  A
C474       C1261   1.485       .  S
O475       Cr482   1.954       .  S
O476       Cr482   2.036       .  S
O476        C477   1.277       .  A
C477        O478   1.260       .  A
C477       C1362   1.479       .  S
O478       Cr483   1.956       .  S
O479       Cr483   2.033       .  S
O479        C480   1.274       .  A
C480       C1578   1.491       .  S
Cr481       O484   1.757       .  S
Cr482       O484   1.769       .  S
Cr483       O484   1.765       .  S
O485       Cr503   1.980       .  S
O485        C493   1.263       .  A
O486       Cr503   2.013       .  S
O486        C487   1.265       .  A
C487        O488   1.261       .  A
C487       C2682   1.487       .  S
O488       Cr504   1.990       .  S
O489       Cr504   2.031       .  S
O489        C490   1.268       .  A
C490        O491   1.254       .  A
C490       C1338   1.492       .  S
O491       Cr505   1.960       .  S
O492       Cr505   2.017       .  S
O492        C493   1.270       .  A
C493       C1218   1.492       .  S
O494       Cr503   2.015       .  S
O494        C502   1.266       .  A
O495       Cr503   1.978       .  S
O495        C496   1.264       .  A
C496        O497   1.276       .  A
C496       C1189   1.499       .  S
O497       Cr504   2.028       .  S
O498       Cr504   1.970       .  S
O498        C499   1.260       .  A
C499        O500   1.272       .  A
C499       C1290   1.496       .  S
O500       Cr505   2.030       .  S
O501       Cr505   1.976       .  S
O501        C502   1.261       .  A
C502       C1501   1.495       .  S
Cr503       O506   1.768       .  S
Cr504       O506   1.767       .  S
Cr505       O506   1.759       .  S
O507       Cr525   2.024       .  S
O507        C515   1.272       .  A
O508       Cr525   1.985       .  S
O508        C509   1.254       .  A
C509        O510   1.257       .  A
C509       C2634   1.487       .  S
O510       Cr526   1.993       .  S
O511       Cr526   1.998       .  S
O511        C512   1.266       .  A
C512        O513   1.262       .  A
C512       C1266   1.465       .  S
O513       Cr527   1.980       .  S
O514       Cr527   1.976       .  S
O514        C515   1.262       .  A
C515       C1194   1.499       .  S
O516       Cr525   1.986       .  S
O516        C524   1.257       .  A
O517       Cr525   2.030       .  S
O517        C518   1.274       .  A
C518        O519   1.263       .  A
C518       C1213   1.497       .  S
O519       Cr526   1.962       .  S
O520       Cr526   1.985       .  S
O520        C521   1.262       .  A
C521        O522   1.268       .  A
C521       C1405   1.496       .  S
O522       Cr527   2.009       .  S
O523       Cr527   1.999       .  S
O523        C524   1.261       .  A
C524       C1453   1.495       .  S
Cr525       O528   1.780       .  S
Cr526       O528   1.778       .  S
Cr527       O528   1.778       .  S
O529       Cr547   1.999   1_455  S
O529        C537   1.263       .  A
O530       Cr547   1.966       .  S
O530        C531   1.255       .  A
C531        O532   1.269       .  A
C531       C1165   1.485       .  S
O532       Cr548   2.026       .  S
O533       Cr548   1.975       .  S
O533        C534   1.259       .  A
C534        O535   1.264   1_655  A
C534       C1890   1.472       .  S
O535       Cr549   2.003       .  S
O536       Cr549   1.985       .  S
O536        C537   1.261       .  A
C537       C1141   1.490       .  S
O538       Cr547   1.975   1_455  S
O538        C546   1.261       .  A
O539       Cr547   2.013       .  S
O539        C540   1.267       .  A
C540        O541   1.259       .  A
C540       C1093   1.487       .  S
O541       Cr548   1.966       .  S
O542       Cr548   2.017       .  S
O542        C543   1.271       .  A
C543        O544   1.265   1_655  A
C543       C1117   1.497   1_655  S
O544       Cr549   1.976       .  S
O545       Cr549   2.018       .  S
O545        C546   1.269       .  A
C546       C1069   1.488       .  S
Cr547       O550   1.762       .  S
Cr548       O550   1.767       .  S
Cr549       O550   1.766   1_455  S
O551       Cr569   2.010   1_455  S
O551        C559   1.267       .  A
O552       Cr569   1.951       .  S
O552        C553   1.251       .  A
C553        O554   1.272       .  A
C553       C1045   1.489       .  S
O554       Cr570   2.045       .  S
O555       Cr570   1.996       .  S
O555        C556   1.263       .  A
C556        O557   1.264   1_655  A
C556       C1813   1.499       .  S
O557       Cr571   2.006       .  S
O558       Cr571   1.977       .  S
O558        C559   1.261       .  A
C559       C1122   1.495       .  S
O560       Cr569   1.975   1_455  S
O560        C568   1.260       .  A
O561       Cr569   2.028       .  S
O561        C562   1.270       .  A
C562        O563   1.258       .  A
C562       C1026   1.486       .  S
O563       Cr570   1.965       .  S
O564       Cr570   2.032       .  S
O564        C565   1.276       .  A
C565        O566   1.262   1_655  A
C565       C1146   1.489       .  S
O566       Cr571   1.956       .  S
O567       Cr571   2.020       .  S
O567        C568   1.269       .  A
C568        C997   1.487       .  S
Cr569       O572   1.761       .  S
Cr570       O572   1.768       .  S
Cr571       O572   1.765   1_455  S
O573       Cr591   1.976       .  S
O573        C581   1.262   1_554  A
O574       Cr591   2.008       .  S
O574        C575   1.265       .  A
C575        O576   1.259       .  A
C575       C1434   1.497       .  S
O576       Cr592   1.984       .  S
O577       Cr592   2.034       .  S
O577        C578   1.271       .  A
C578        O579   1.254       .  A
C578       C1021   1.483   1_554  S
O579       Cr593   1.959       .  S
O580       Cr593   2.014       .  S
O580        C581   1.268   1_554  A
C581        C954   1.494       .  S
O582       Cr591   2.016       .  S
O582        C590   1.268       .  A
O583       Cr591   1.967       .  S
O583        C584   1.263       .  A
C584        O585   1.275       .  A
C584        C973   1.487       .  S
O585       Cr592   2.027       .  S
O586       Cr592   1.965       .  S
O586        C587   1.256       .  A
C587        O588   1.269       .  A
C587       C1170   1.488       .  S
O588       Cr593   2.023       .  S
O589       Cr593   1.980       .  S
O589        C590   1.260       .  A
C590        C925   1.493       .  S
Cr591       O594   1.769       .  S
Cr592       O594   1.766       .  S
Cr593       O594   1.764       .  S
O595       Cr613   1.980       .  S
O595        C603   1.261       .  A
O596       Cr613   2.004       .  S
O596        C597   1.266       .  A
C597        O598   1.260       .  A
C597       C1482   1.487       .  S
O598       Cr614   1.976       .  S
O599       Cr614   2.047       .  S
O599        C600   1.268       .  A
C600        O601   1.246       .  A
C600       C1098   1.478       .  S
O601       Cr615   1.949       .  S
O602       Cr615   2.018       .  S
O602        C603   1.269       .  A
C603        C978   1.499       .  S
O604       Cr613   2.019       .  S
O604        C612   1.269       .  A
O605       Cr613   1.965       .  S
O605        C606   1.262       .  A
C606        O607   1.275       .  A
C606        C949   1.491       .  S
O607       Cr614   2.025       .  S
O608       Cr614   1.960       .  S
O608        C609   1.257       .  A
C609        O610   1.271       .  A
C609       C1050   1.480       .  S
O610       Cr615   2.041       .  S
O611       Cr615   1.962       .  S
O611        C612   1.258       .  A
C612        C901   1.481       .  S
Cr613       O616   1.761       .  S
Cr614       O616   1.768       .  S
Cr615       O616   1.750       .  S
O617       Cr635   2.016       .  S
O617        C625   1.269       .  A
O618       Cr635   1.953       .  S
O618        C619   1.252       .  A
C619        O620   1.268       .  A
C619        C882   1.478       .  S
O620       Cr636   2.034       .  S
O621       Cr636   1.994       .  S
O621        C622   1.262       .  A
C622        O623   1.265       .  A
C622       C1237   1.490       .  S
O623       Cr637   2.011       .  S
O624       Cr637   1.974       .  S
O624        C625   1.260       .  A
C625        C829   1.498       .  S
O626       Cr635   1.970       .  S
O626        C634   1.259       .  A
O627       Cr635   2.027       .  S
O627        C628   1.271       .  A
C628        O629   1.259       .  A
C628        C805   1.483       .  S
O629       Cr636   1.965       .  S
O630       Cr636   2.030       .  S
O630        C631   1.275       .  A
C631        O632   1.262       .  A
C631        C853   1.483       .  S
O632       Cr637   1.963       .  S
O633       Cr637   2.019       .  S
O633        C634   1.268       .  A
C634       C1074   1.483       .  S
Cr635       O638   1.765       .  S
Cr636       O638   1.770       .  S
Cr637       O638   1.769       .  S
O639       Cr657   2.006   1_554  S
O639        C647   1.266       .  A
O640       Cr657   1.952   1_554  S
O640        C641   1.248       .  A
C641        O642   1.270   1_554  A
C641        C781   1.493       .  S
O642       Cr658   2.052       .  S
O643       Cr658   1.985       .  S
O643        C644   1.262       .  A
C644        O645   1.267       .  A
C644       C1314   1.492       .  S
O645       Cr659   2.010       .  S
O646       Cr659   1.985   1_554  S
O646        C647   1.259       .  A
C647        C858   1.496       .  S
O648       Cr657   1.963       .  S
O648        C656   1.260       .  A
O649       Cr657   2.033       .  S
O649        C650   1.272       .  A
C650        O651   1.259       .  A
C650        C762   1.492       .  S
O651       Cr658   1.973       .  S
O652       Cr658   2.022       .  S
O652        C653   1.274       .  A
C653        O654   1.262       .  A
C653        C834   1.477       .  S
O654       Cr659   1.964       .  S
O655       Cr659   2.029       .  S
O655        C656   1.273       .  A
C656       C1002   1.485       .  S
Cr657       O660   1.752       .  S
Cr658       O660   1.770       .  S
Cr659       O660   1.767       .  S
O661       Cr679   1.980       .  S
O661        C669   1.258       .  A
O662       Cr679   2.004       .  S
O662        C663   1.263   1_655  A
C663        O664   1.259       .  A
C663       C2058   1.482       .  S
O664       Cr680   1.980       .  S
O665       Cr680   2.035       .  S
O665        C666   1.272       .  A
C666        O667   1.258       .  A
C666        C810   1.490       .  S
O667       Cr681   1.961       .  S
O668       Cr681   2.008   1_655  S
O668        C669   1.264       .  A
C669        C738   1.483       .  S
O670       Cr679   2.028       .  S
O670        C678   1.270       .  A
O671       Cr679   1.963       .  S
O671        C672   1.261       .  A
C672        O673   1.275   1_655  A
C672        C709   1.496       .  S
O673       Cr680   2.026       .  S
O674       Cr680   1.979       .  S
O674        C675   1.260       .  A
C675        O676   1.264       .  A
C675        C786   1.492       .  S
O676       Cr681   2.003       .  S
O677       Cr681   1.973   1_655  S
O677        C678   1.261       .  A
C678        C930   1.496       .  S
Cr679       O682   1.769   1_655  S
Cr680       O682   1.770       .  S
Cr681       O682   1.764       .  S
O683       Cr701   1.970       .  S
O683        C691   1.259       .  A
O684       Cr701   2.006       .  S
O684        C685   1.264   1_655  A
C685        O686   1.260       .  A
C685       C2010   1.477       .  S
O686       Cr702   1.982       .  S
O687       Cr702   2.047       .  S
O687        C688   1.272       .  A
C688        O689   1.252       .  A
C688        C757   1.493       .  S
O689       Cr703   1.951       .  S
O690       Cr703   2.018   1_655  S
O690        C691   1.270       .  A
C691        C714   1.491       .  S
O692       Cr701   2.018       .  S
O692        C700   1.269       .  A
O693       Cr701   1.955       .  S
O693        C694   1.261   1_655  A
C694        O695   1.276       .  A
C694        C733   1.484       .  S
O695       Cr702   2.035       .  S
O696       Cr702   1.956       .  S
O696        C697   1.257       .  A
C697        O698   1.270       .  A
C697        C877   1.481       .  S
O698       Cr703   2.036       .  S
O699       Cr703   1.967   1_655  S
O699        C700   1.259       .  A
C700        C906   1.486       .  S
Cr701       O704   1.766   1_655  S
Cr702       O704   1.763       .  S
Cr703       O704   1.758       .  S
C705        C706   1.413   1_455  A
C705        C710   1.402   1_556  A
C705        C719   1.444       .  S
C706        C711   1.489       .  S
C706        C707   1.400   1_556  A
C707        C708   1.401       .  A
C707        H726   1.085   1_554  S
C708        C709   1.422       .  A
C708        C720   1.445       .  S
C709        C710   1.408   1_655  A
C710        H725   1.084       .  S
C711        C712   1.404       .  A
C711        C716   1.409       .  A
C712        C713   1.401       .  A
C712        H727   1.085       .  S
C713        C714   1.415       .  A
C713        C717   1.444       .  S
C714        C715   1.411       .  A
C715        C716   1.402       .  A
C715        H728   1.085       .  S
C716        C718   1.445       .  S
C717        N721   1.157       .  T
C718        N722   1.157       .  T
C719        N724   1.157       .  T
C720        N723   1.158       .  T
C729        C730   1.408       .  A
C729        C734   1.399       .  A
C729        C743   1.444       .  S
C730        C735   1.486       .  S
C730        C731   1.405   1_655  A
C731        C732   1.403       .  A
C731        H750   1.085       .  S
C732        C733   1.413       .  A
C732        C744   1.444       .  S
C733        C734   1.408   1_455  A
C734        H749   1.085       .  S
C735        C736   1.397   1_655  A
C735        C740   1.413       .  A
C736        C737   1.397   1_455  A
C736        H751   1.085       .  S
C737        C738   1.417       .  A
C737        C741   1.442   1_655  S
C738        C739   1.404       .  A
C739        C740   1.404       .  A
C739        H752   1.085       .  S
C740        C742   1.444       .  S
C741        N745   1.156       .  T
C742        N746   1.157       .  T
C743        N748   1.157       .  T
C744        N747   1.157       .  T
C753        C754   1.420       .  A
C753        C758   1.409       .  A
C753        C767   1.443       .  S
C754        C759   1.507       .  S
C754        C755   1.405       .  A
C755        C756   1.395       .  A
C755        H774   1.084       .  S
C756        C757   1.416       .  A
C756        C768   1.444       .  S
C757        C758   1.407       .  A
C758        H773   1.085       .  S
C759        C760   1.408       .  A
C759        C764   1.418       .  A
C760        C761   1.399       .  A
C760        H775   1.081       .  S
C761        C762   1.412       .  A
C761        C765   1.442       .  S
C762        C763   1.408       .  A
C763        C764   1.407       .  A
C763        H776   1.084       .  S
C764        C766   1.444       .  S
C765        N769   1.156   1_556  T
C766        N770   1.158       .  T
C767        N772   1.157       .  T
C768        N771   1.156       .  T
C777        C778   1.416       .  A
C777        C782   1.392       .  A
C777        C791   1.446       .  S
C778        C783   1.503       .  S
C778        C779   1.413       .  A
C779        C780   1.410       .  A
C779        H798   1.084       .  S
C780        C781   1.412       .  A
C780        C792   1.442       .  S
C781        C782   1.408       .  A
C782        H797   1.085       .  S
C783        C784   1.404       .  A
C783        C788   1.418       .  A
C784        C785   1.397       .  A
C784        H799   1.084       .  S
C785        C786   1.419       .  A
C785        C789   1.445       .  S
C786        C787   1.406       .  A
C787        C788   1.405       .  A
C787        H800   1.085       .  S
C788        C790   1.442       .  S
C789        N793   1.158       .  T
C790        N794   1.157       .  T
C791        N796   1.157       .  T
C792        N795   1.157   1_554  T
C801        C802   1.411       .  A
C801        C806   1.400       .  A
C801        C815   1.444       .  S
C802        C807   1.495       .  S
C802        C803   1.410       .  A
C803        C804   1.404       .  A
C803        H822   1.084       .  S
C804        C805   1.409       .  A
C804        C816   1.444       .  S
C805        C806   1.407       .  A
C806        H821   1.085       .  S
C807        C808   1.406       .  A
C807        C812   1.411       .  A
C808        C809   1.404       .  A
C808        H823   1.085       .  S
C809        C810   1.416       .  A
C809        C813   1.444       .  S
C810        C811   1.408       .  A
C811        C812   1.400       .  A
C811        H824   1.085       .  S
C812        C814   1.444       .  S
C813        N817   1.157       .  T
C814        N818   1.157       .  T
C815        N820   1.157       .  T
C816        N819   1.157       .  T
C825        C826   1.412       .  A
C825        C830   1.405       .  A
C825        C839   1.444       .  S
C826        C831   1.494       .  S
C826        C827   1.402       .  A
C827        C828   1.401       .  A
C827        H846   1.085       .  S
C828        C829   1.421       .  A
C828        C840   1.445       .  S
C829        C830   1.409       .  A
C830        H845   1.084       .  S
C831        C832   1.407       .  A
C831        C836   1.417       .  A
C832        C833   1.402       .  A
C832        H847   1.084       .  S
C833        C834   1.410       .  A
C833        C837   1.444       .  S
C834        C835   1.401       .  A
C835        C836   1.401       .  A
C835        H848   1.084       .  S
C836        C838   1.443       .  S
C837        N841   1.157       .  T
C838        N842   1.157       .  T
C839        N844   1.157       .  T
C840        N843   1.157       .  T
C849        C850   1.412       .  A
C849        C854   1.402       .  A
C849        C863   1.444       .  S
C850        C855   1.488       .  S
C850        C851   1.402       .  A
C851        C852   1.403       .  A
C851        H870   1.084       .  S
C852        C853   1.415       .  A
C852        C864   1.444       .  S
C853        C854   1.404       .  A
C854        H869   1.085       .  S
C855        C856   1.402       .  A
C855        C860   1.409       .  A
C856        C857   1.406       .  A
C856        H871   1.085       .  S
C857        C858   1.422       .  A
C857        C861   1.444       .  S
C858        C859   1.409       .  A
C859        C860   1.399       .  A
C859        H872   1.084       .  S
C860        C862   1.444       .  S
C861        N865   1.158       .  T
C862        N866   1.157       .  T
C863        N868   1.157       .  T
C864        N867   1.157       .  T
C873        C874   1.406       .  A
C873        C878   1.396       .  A
C873        C887   1.444       .  S
C874        C879   1.488       .  S
C874        C875   1.408       .  A
C875        C876   1.407       .  A
C875        H894   1.084       .  S
C876        C877   1.410       .  A
C876        C888   1.442       .  S
C877        C878   1.407       .  A
C878        H893   1.085       .  S
C879        C880   1.402       .  A
C879        C884   1.415       .  A
C880        C881   1.401       .  A
C880        H895   1.085       .  S
C881        C882   1.412       .  A
C881        C885   1.443       .  S
C882        C883   1.403       .  A
C883        C884   1.402       .  A
C883        H896   1.085       .  S
C884        C886   1.445       .  S
C885        N889   1.157       .  T
C886        N890   1.157       .  T
C887        N892   1.157       .  T
C888        N891   1.157       .  T
C897        C898   1.411       .  A
C897        C902   1.398       .  A
C897        C911   1.445       .  S
C898        C903   1.485       .  S
C898        C899   1.403       .  A
C899        C900   1.400       .  A
C899        H918   1.084       .  S
C900        C901   1.414       .  A
C900        C912   1.444       .  S
C901        C902   1.406       .  A
C902        H917   1.084       .  S
C903        C904   1.401       .  A
C903        C908   1.410       .  A
C904        C905   1.399       .  A
C904        H919   1.084       .  S
C905        C906   1.417       .  A
C905        C909   1.443       .  S
C906        C907   1.406       .  A
C907        C908   1.400       .  A
C907        H920   1.084       .  S
C908        C910   1.444       .  S
C909        N913   1.157   1_655  T
C910        N914   1.157       .  T
C911        N916   1.157       .  T
C912        N915   1.157       .  T
C921        C922   1.410       .  A
C921        C926   1.402       .  A
C921        C935   1.443       .  S
C922        C927   1.493       .  S
C922        C923   1.405       .  A
C923        C924   1.404       .  A
C923        H942   1.085       .  S
C924        C925   1.418       .  A
C924        C936   1.445       .  S
C925        C926   1.408       .  A
C926        H941   1.084       .  S
C927        C928   1.405       .  A
C927        C932   1.410       .  A
C928        C929   1.406       .  A
C928        H943   1.085       .  S
C929        C930   1.418       .  A
C929        C933   1.443       .  S
C930        C931   1.408       .  A
C931        C932   1.400       .  A
C931        H944   1.085       .  S
C932        C934   1.444       .  S
C933        N937   1.157       .  T
C934        N938   1.157       .  T
C935        N940   1.157       .  T
C936        N939   1.158       .  T
C945        C946   1.409       .  A
C945        C950   1.403       .  A
C945        C959   1.444       .  S
C946        C951   1.485       .  S
C946        C947   1.400       .  A
C947        C948   1.401       .  A
C947        H966   1.084       .  S
C948        C949   1.420       .  A
C948        C960   1.445       .  S
C949        C950   1.408       .  A
C950        H965   1.084       .  S
C951        C952   1.401       .  A
C951        C956   1.407       .  A
C952        C953   1.403       .  A
C952        H967   1.085       .  S
C953        C954   1.420       .  A
C953        C957   1.444       .  S
C954        C955   1.409       .  A
C955        C956   1.400       .  A
C955        H968   1.084       .  S
C956        C958   1.444       .  S
C957        N961   1.157       .  T
C958        N962   1.157       .  T
C959        N964   1.157       .  T
C960        N963   1.157       .  T
C969        C970   1.411       .  A
C969        C974   1.403       .  A
C969        C983   1.444       .  S
C970        C975   1.489       .  S
C970        C971   1.402       .  A
C971        C972   1.405       .  A
C971        H990   1.085       .  S
C972        C973   1.416       .  A
C972        C984   1.444       .  S
C973        C974   1.405       .  A
C974        H989   1.085       .  S
C975        C976   1.402       .  A
C975        C980   1.407       .  A
C976        C977   1.404       .  A
C976        H991   1.085       .  S
C977        C978   1.419       .  A
C977        C981   1.443       .  S
C978        C979   1.413       .  A
C979        C980   1.404       .  A
C979        H992   1.084       .  S
C980        C982   1.444       .  S
C981        N985   1.157       .  T
C982        N986   1.157       .  T
C983        N988   1.157       .  T
C984        N987   1.157       .  T
C993        C994   1.411       .  A
C993        C998   1.403       .  A
C993       C1007   1.444       .  S
C994        C999   1.492       .  S
C994        C995   1.404       .  A
C995        C996   1.402       .  A
C995       H1014   1.084       .  S
C996        C997   1.415       .  A
C996       C1008   1.444       .  S
C997        C998   1.406       .  A
C998       H1013   1.084       .  S
C999       C1000   1.406       .  A
C999       C1004   1.411       .  A
C1000      C1001   1.404       .  A
C1000      H1015   1.084       .  S
C1001      C1002   1.412       .  A
C1001      C1005   1.443       .  S
C1002      C1003   1.407       .  A
C1003      C1004   1.401       .  A
C1003      H1016   1.085       .  S
C1004      C1006   1.444       .  S
C1005      N1009   1.157       .  T
C1006      N1010   1.157       .  T
C1007      N1012   1.157       .  T
C1008      N1011   1.157       .  T
C1017      C1018   1.413       .  A
C1017      C1022   1.402       .  A
C1017      C1031   1.444       .  S
C1018      C1023   1.495       .  S
C1018      C1019   1.406       .  A
C1019      C1020   1.400   1_556  A
C1019      H1038   1.084   1_556  S
C1020      C1021   1.412   1_554  A
C1020      C1032   1.442       .  S
C1021      C1022   1.408       .  A
C1022      H1037   1.085       .  S
C1023      C1024   1.409       .  A
C1023      C1028   1.411       .  A
C1024      C1025   1.404       .  A
C1024      H1039   1.084       .  S
C1025      C1026   1.411       .  A
C1025      C1029   1.442       .  S
C1026      C1027   1.407       .  A
C1027      C1028   1.399       .  A
C1027      H1040   1.085       .  S
C1028      C1030   1.444       .  S
C1029      N1033   1.157       .  T
C1030      N1034   1.157       .  T
C1031      N1036   1.157       .  T
C1032      N1035   1.156       .  T
C1041      C1042   1.411       .  A
C1041      C1046   1.400       .  A
C1041      C1055   1.444       .  S
C1042      C1047   1.494       .  S
C1042      C1043   1.407       .  A
C1043      C1044   1.403       .  A
C1043      H1062   1.085       .  S
C1044      C1045   1.413       .  A
C1044      C1056   1.442       .  S
C1045      C1046   1.410       .  A
C1046      H1061   1.085       .  S
C1047      C1048   1.400       .  A
C1047      C1052   1.419       .  A
C1048      C1049   1.396       .  A
C1048      H1063   1.085       .  S
C1049      C1050   1.416       .  A
C1049      C1053   1.445       .  S
C1050      C1051   1.402       .  A
C1051      C1052   1.407       .  A
C1051      H1064   1.084       .  S
C1052      C1054   1.444       .  S
C1053      N1057   1.157       .  T
C1054      N1058   1.157       .  T
C1055      N1060   1.157       .  T
C1056      N1059   1.157       .  T
C1065      C1066   1.414       .  A
C1065      C1070   1.403       .  A
C1065      C1079   1.445       .  S
C1066      C1071   1.495       .  S
C1066      C1067   1.405       .  A
C1067      C1068   1.402       .  A
C1067      H1086   1.084       .  S
C1068      C1069   1.415       .  A
C1068      C1080   1.444       .  S
C1069      C1070   1.407       .  A
C1070      H1085   1.085       .  S
C1071      C1072   1.405       .  A
C1071      C1076   1.415       .  A
C1072      C1073   1.402       .  A
C1072      H1087   1.084       .  S
C1073      C1074   1.413       .  A
C1073      C1077   1.444       .  S
C1074      C1075   1.404       .  A
C1075      C1076   1.403       .  A
C1075      H1088   1.085       .  S
C1076      C1078   1.444       .  S
C1077      N1081   1.157       .  T
C1078      N1082   1.157       .  T
C1079      N1084   1.157       .  T
C1080      N1083   1.157       .  T
C1089      C1090   1.407       .  A
C1089      C1094   1.400       .  A
C1089      C1103   1.444       .  S
C1090      C1095   1.480       .  S
C1090      C1091   1.402       .  A
C1091      C1092   1.396       .  A
C1091      H1110   1.086       .  S
C1092      C1093   1.418       .  A
C1092      C1104   1.445       .  S
C1093      C1094   1.410       .  A
C1094      H1109   1.084       .  S
C1095      C1096   1.393       .  A
C1095      C1100   1.414       .  A
C1096      C1097   1.386       .  A
C1096      H1111   1.086       .  S
C1097      C1098   1.421       .  A
C1097      C1101   1.447       .  S
C1098      C1099   1.404       .  A
C1099      C1100   1.409       .  A
C1099      H1112   1.084       .  S
C1100      C1102   1.442       .  S
C1101      N1105   1.157       .  T
C1102      N1106   1.157       .  T
C1103      N1108   1.157       .  T
C1104      N1107   1.158       .  T
C1113      C1114   1.406       .  A
C1113      C1118   1.400       .  A
C1113      C1127   1.444       .  S
C1114      C1119   1.486       .  S
C1114      C1115   1.401   1_455  A
C1115      C1116   1.404       .  A
C1115      H1134   1.085       .  S
C1116      C1117   1.421   1_655  A
C1116      C1128   1.444       .  S
C1117      C1118   1.410       .  A
C1118      H1133   1.084       .  S
C1119      C1120   1.401       .  A
C1119      C1124   1.407       .  A
C1120      C1121   1.402       .  A
C1120      H1135   1.085       .  S
C1121      C1122   1.420       .  A
C1121      C1125   1.444       .  S
C1122      C1123   1.411       .  A
C1123      C1124   1.402       .  A
C1123      H1136   1.084       .  S
C1124      C1126   1.444       .  S
C1125      N1129   1.157       .  T
C1126      N1130   1.157       .  T
C1127      N1132   1.157       .  T
C1128      N1131   1.158       .  T
C1137      C1138   1.408       .  A
C1137      C1142   1.403       .  A
C1137      C1151   1.444       .  S
C1138      C1143   1.481       .  S
C1138      C1139   1.397       .  A
C1139      C1140   1.397       .  A
C1139      H1158   1.085   1_455  S
C1140      C1141   1.421       .  A
C1140      C1152   1.445   1_455  S
C1141      C1142   1.410       .  A
C1142      H1157   1.084       .  S
C1143      C1144   1.403   1_455  A
C1143      C1148   1.405       .  A
C1144      C1145   1.403   1_554  A
C1144      H1159   1.085       .  S
C1145      C1146   1.417       .  A
C1145      C1149   1.444       .  S
C1146      C1147   1.410   1_655  A
C1147      C1148   1.398   1_556  A
C1147      H1160   1.084       .  S
C1148      C1150   1.445       .  S
C1149      N1153   1.157       .  T
C1150      N1154   1.157       .  T
C1151      N1156   1.157       .  T
C1152      N1155   1.157       .  T
C1161      C1162   1.414       .  A
C1161      C1166   1.402       .  A
C1161      C1175   1.444       .  S
C1162      C1167   1.496       .  S
C1162      C1163   1.405       .  A
C1163      C1164   1.400       .  A
C1163      H1182   1.085       .  S
C1164      C1165   1.415       .  A
C1164      C1176   1.444       .  S
C1165      C1166   1.407       .  A
C1166      H1181   1.085       .  S
C1167      C1168   1.402       .  A
C1167      C1172   1.417       .  A
C1168      C1169   1.399       .  A
C1168      H1183   1.084       .  S
C1169      C1170   1.419       .  A
C1169      C1173   1.445       .  S
C1170      C1171   1.404       .  A
C1171      C1172   1.403       .  A
C1171      H1184   1.084       .  S
C1172      C1174   1.444       .  S
C1173      N1177   1.157       .  T
C1174      N1178   1.157       .  T
C1175      N1180   1.157       .  T
C1176      N1179   1.157       .  T
C1185      C1186   1.414       .  A
C1185      C1190   1.404       .  A
C1185      C1199   1.442       .  S
C1186      C1191   1.500       .  S
C1186      C1187   1.405       .  A
C1187      C1188   1.409       .  A
C1187      H1206   1.084       .  S
C1188      C1189   1.420       .  A
C1188      C1200   1.444       .  S
C1189      C1190   1.406       .  A
C1190      H1205   1.084       .  S
C1191      C1192   1.404       .  A
C1191      C1196   1.414       .  A
C1192      C1193   1.405       .  A
C1192      H1207   1.084       .  S
C1193      C1194   1.417       .  A
C1193      C1197   1.442       .  S
C1194      C1195   1.408       .  A
C1195      C1196   1.409       .  A
C1195      H1208   1.084       .  S
C1196      C1198   1.443       .  S
C1197      N1201   1.157       .  T
C1198      N1202   1.157       .  T
C1199      N1204   1.157       .  T
C1200      N1203   1.157       .  T
C1209      C1210   1.406       .  A
C1209      C1214   1.397   1_554  A
C1209      C1223   1.445       .  S
C1210      C1215   1.487       .  S
C1210      C1211   1.404       .  A
C1211      C1212   1.409   1_554  A
C1211      H1230   1.084       .  S
C1212      C1213   1.418       .  A
C1212      C1224   1.443       .  S
C1213      C1214   1.411       .  A
C1214      H1229   1.084       .  S
C1215      C1216   1.403       .  A
C1215      C1220   1.407       .  A
C1216      C1217   1.403       .  A
C1216      H1231   1.085       .  S
C1217      C1218   1.417       .  A
C1217      C1221   1.444       .  S
C1218      C1219   1.410       .  A
C1219      C1220   1.402       .  A
C1219      H1232   1.084       .  S
C1220      C1222   1.443       .  S
C1221      N1225   1.157       .  T
C1222      N1226   1.157       .  T
C1223      N1228   1.157       .  T
C1224      N1227   1.157       .  T
C1233      C1234   1.411       .  A
C1233      C1238   1.403       .  A
C1233      C1247   1.444       .  S
C1234      C1239   1.494       .  S
C1234      C1235   1.405       .  A
C1235      C1236   1.407       .  A
C1235      H1254   1.084       .  S
C1236      C1237   1.414       .  A
C1236      C1248   1.444       .  S
C1237      C1238   1.407       .  A
C1238      H1253   1.085       .  S
C1239      C1240   1.404       .  A
C1239      C1244   1.411       .  A
C1240      C1241   1.405       .  A
C1240      H1255   1.085       .  S
C1241      C1242   1.417       .  A
C1241      C1245   1.444       .  S
C1242      C1243   1.408       .  A
C1243      C1244   1.405       .  A
C1243      H1256   1.084       .  S
C1244      C1246   1.444       .  S
C1245      N1249   1.157       .  T
C1246      N1250   1.157       .  T
C1247      N1252   1.157       .  T
C1248      N1251   1.157       .  T
C1257      C1258   1.416       .  A
C1257      C1262   1.407       .  A
C1257      C1271   1.441       .  S
C1258      C1263   1.492       .  S
C1258      C1259   1.399       .  A
C1259      C1260   1.398       .  A
C1259      H1278   1.085       .  S
C1260      C1261   1.420       .  A
C1260      C1272   1.445       .  S
C1261      C1262   1.401       .  A
C1262      H1277   1.084       .  S
C1263      C1264   1.408       .  A
C1263      C1268   1.414       .  A
C1264      C1265   1.405       .  A
C1264      H1279   1.085       .  S
C1265      C1266   1.406       .  A
C1265      C1269   1.443       .  S
C1266      C1267   1.401       .  A
C1267      C1268   1.398       .  A
C1267      H1280   1.086       .  S
C1268      C1270   1.445       .  S
C1269      N1273   1.157       .  T
C1270      N1274   1.157       .  T
C1271      N1276   1.156       .  T
C1272      N1275   1.157       .  T
C1281      C1282   1.409       .  A
C1281      C1286   1.393       .  A
C1281      C1295   1.446       .  S
C1282      C1287   1.499       .  S
C1282      C1283   1.412       .  A
C1283      C1284   1.413       .  A
C1283      H1302   1.084       .  S
C1284      C1285   1.413       .  A
C1284      C1296   1.442       .  S
C1285      C1286   1.412       .  A
C1286      H1301   1.085       .  S
C1287      C1288   1.406       .  A
C1287      C1292   1.412       .  A
C1288      C1289   1.401       .  A
C1288      H1303   1.085       .  S
C1289      C1290   1.417       .  A
C1289      C1293   1.444       .  S
C1290      C1291   1.411       .  A
C1291      C1292   1.406       .  A
C1291      H1304   1.085       .  S
C1292      C1294   1.444       .  S
C1293      N1297   1.157       .  T
C1294      N1298   1.157       .  T
C1295      N1300   1.157       .  T
C1296      N1299   1.157       .  T
C1305      C1306   1.408       .  A
C1305      C1310   1.402       .  A
C1305      C1319   1.444       .  S
C1306      C1311   1.485       .  S
C1306      C1307   1.401       .  A
C1307      C1308   1.403       .  A
C1307      H1326   1.084   1_554  S
C1308      C1309   1.417       .  A
C1308      C1320   1.445       .  S
C1309      C1310   1.407       .  A
C1310      H1325   1.084       .  S
C1311      C1312   1.401       .  A
C1311      C1316   1.408   1_554  A
C1312      C1313   1.404       .  A
C1312      H1327   1.085       .  S
C1313      C1314   1.419   1_554  A
C1313      C1317   1.444       .  S
C1314      C1315   1.409       .  A
C1315      C1316   1.401       .  A
C1315      H1328   1.084       .  S
C1316      C1318   1.444       .  S
C1317      N1321   1.157       .  T
C1318      N1322   1.157       .  T
C1319      N1324   1.157       .  T
C1320      N1323   1.157   1_554  T
C1329      C1330   1.411       .  A
C1329      C1334   1.398       .  A
C1329      C1343   1.444       .  S
C1330      C1335   1.494       .  S
C1330      C1331   1.411       .  A
C1331      C1332   1.404       .  A
C1331      H1350   1.084       .  S
C1332      C1333   1.407       .  A
C1332      C1344   1.443       .  S
C1333      C1334   1.404       .  A
C1334      H1349   1.085       .  S
C1335      C1336   1.406       .  A
C1335      C1340   1.411       .  A
C1336      C1337   1.404       .  A
C1336      H1351   1.085       .  S
C1337      C1338   1.417       .  A
C1337      C1341   1.444       .  S
C1338      C1339   1.409       .  A
C1339      C1340   1.399       .  A
C1339      H1352   1.085       .  S
C1340      C1342   1.445       .  S
C1341      N1345   1.157       .  T
C1342      N1346   1.157       .  T
C1343      N1348   1.157       .  T
C1344      N1347   1.157       .  T
C1353      C1354   1.411       .  A
C1353      C1358   1.403       .  A
C1353      C1367   1.443       .  S
C1354      C1359   1.495       .  S
C1354      C1355   1.404       .  A
C1355      C1356   1.406       .  A
C1355      H1374   1.085       .  S
C1356      C1357   1.421       .  A
C1356      C1368   1.444       .  S
C1357      C1358   1.409       .  A
C1358      H1373   1.084       .  S
C1359      C1360   1.404       .  A
C1359      C1364   1.417       .  A
C1360      C1361   1.403       .  A
C1360      H1375   1.084       .  S
C1361      C1362   1.412       .  A
C1361      C1365   1.444       .  S
C1362      C1363   1.401       .  A
C1363      C1364   1.403       .  A
C1363      H1376   1.085       .  S
C1364      C1366   1.442       .  S
C1365      N1369   1.157       .  T
C1366      N1370   1.157       .  T
C1367      N1372   1.157       .  T
C1368      N1371   1.157       .  T
C1377      C1378   1.409       .  A
C1377      C1382   1.401       .  A
C1377      C1391   1.445       .  S
C1378      C1383   1.484       .  S
C1378      C1379   1.400       .  A
C1379      C1380   1.404       .  A
C1379      H1398   1.084       .  S
C1380      C1381   1.417       .  A
C1380      C1392   1.442       .  S
C1381      C1382   1.407       .  A
C1382      H1397   1.084       .  S
C1383      C1384   1.398       .  A
C1383      C1388   1.408       .  A
C1384      C1385   1.402       .  A
C1384      H1399   1.085       .  S
C1385      C1386   1.424       .  A
C1385      C1389   1.445       .  S
C1386      C1387   1.409       .  A
C1387      C1388   1.401       .  A
C1387      H1400   1.084       .  S
C1388      C1390   1.444       .  S
C1389      N1393   1.158       .  T
C1390      N1394   1.157       .  T
C1391      N1396   1.157       .  T
C1392      N1395   1.157       .  T
C1401      C1402   1.405       .  A
C1401      C1406   1.397       .  A
C1401      C1415   1.445       .  S
C1402      C1407   1.488       .  S
C1402      C1403   1.407       .  A
C1403      C1404   1.408       .  A
C1403      H1422   1.085       .  S
C1404      C1405   1.415       .  A
C1404      C1416   1.443       .  S
C1405      C1406   1.413       .  A
C1406      H1421   1.084       .  S
C1407      C1408   1.404       .  A
C1407      C1412   1.413   1_556  A
C1408      C1409   1.401       .  A
C1408      H1423   1.085       .  S
C1409      C1410   1.412   1_556  A
C1409      C1413   1.444       .  S
C1410      C1411   1.404       .  A
C1411      C1412   1.401       .  A
C1411      H1424   1.084       .  S
C1412      C1414   1.443       .  S
C1413      N1417   1.157       .  T
C1414      N1418   1.157       .  T
C1415      N1420   1.157       .  T
C1416      N1419   1.157       .  T
C1425      C1426   1.412   1_554  A
C1425      C1430   1.402   1_554  A
C1425      C1439   1.444       .  S
C1426      C1431   1.494   1_556  S
C1426      C1427   1.404       .  A
C1427      C1428   1.403       .  A
C1427      H1446   1.084       .  S
C1428      C1429   1.418       .  A
C1428      C1440   1.444       .  S
C1429      C1430   1.408       .  A
C1430      H1445   1.084       .  S
C1431      C1432   1.404       .  A
C1431      C1436   1.411       .  A
C1432      C1433   1.404       .  A
C1432      H1447   1.084   1_554  S
C1433      C1434   1.419       .  A
C1433      C1437   1.444       .  S
C1434      C1435   1.409       .  A
C1435      C1436   1.401       .  A
C1435      H1448   1.084       .  S
C1436      C1438   1.445       .  S
C1437      N1441   1.157       .  T
C1438      N1442   1.157       .  T
C1439      N1444   1.157       .  T
C1440      N1443   1.157       .  T
C1449      C1450   1.408       .  A
C1449      C1454   1.402       .  A
C1449      C1463   1.444       .  S
C1450      C1455   1.487       .  S
C1450      C1451   1.401       .  A
C1451      C1452   1.405       .  A
C1451      H1470   1.085       .  S
C1452      C1453   1.419       .  A
C1452      C1464   1.443       .  S
C1453      C1454   1.409       .  A
C1454      H1469   1.084       .  S
C1455      C1456   1.403       .  A
C1455      C1460   1.409       .  A
C1456      C1457   1.404       .  A
C1456      H1471   1.084       .  S
C1457      C1458   1.414       .  A
C1457      C1461   1.444       .  S
C1458      C1459   1.407       .  A
C1459      C1460   1.402       .  A
C1459      H1472   1.084       .  S
C1460      C1462   1.443       .  S
C1461      N1465   1.157       .  T
C1462      N1466   1.157       .  T
C1463      N1468   1.157       .  T
C1464      N1467   1.157       .  T
C1473      C1474   1.412       .  A
C1473      C1478   1.400       .  A
C1473      C1487   1.444       .  S
C1474      C1479   1.480       .  S
C1474      C1475   1.399       .  A
C1475      C1476   1.396       .  A
C1475      H1494   1.085       .  S
C1476      C1477   1.415       .  A
C1476      C1488   1.445       .  S
C1477      C1478   1.404       .  A
C1478      H1493   1.085       .  S
C1479      C1480   1.401       .  A
C1479      C1484   1.407       .  A
C1480      C1481   1.400       .  A
C1480      H1495   1.084       .  S
C1481      C1482   1.418       .  A
C1481      C1485   1.444       .  S
C1482      C1483   1.408       .  A
C1483      C1484   1.397       .  A
C1483      H1496   1.084       .  S
C1484      C1486   1.445       .  S
C1485      N1489   1.157       .  T
C1486      N1490   1.157       .  T
C1487      N1492   1.157       .  T
C1488      N1491   1.157       .  T
C1497      C1498   1.408       .  A
C1497      C1502   1.400       .  A
C1497      C1511   1.444       .  S
C1498      C1503   1.483       .  S
C1498      C1499   1.399       .  A
C1499      C1500   1.403       .  A
C1499      H1518   1.085       .  S
C1500      C1501   1.422       .  A
C1500      C1512   1.444       .  S
C1501      C1502   1.409       .  A
C1502      H1517   1.084       .  S
C1503      C1504   1.403       .  A
C1503      C1508   1.409       .  A
C1504      C1505   1.404       .  A
C1504      H1519   1.085       .  S
C1505      C1506   1.412       .  A
C1505      C1509   1.440       .  S
C1506      C1507   1.404       .  A
C1507      C1508   1.398       .  A
C1507      H1520   1.085       .  S
C1508      C1510   1.444       .  S
C1509      N1513   1.156       .  T
C1510      N1514   1.157       .  T
C1511      N1516   1.157       .  T
C1512      N1515   1.157       .  T
C1521      C1522   1.418       .  A
C1521      C1526   1.412       .  A
C1521      C1535   1.443       .  S
C1522      C1527   1.501       .  S
C1522      C1523   1.403       .  A
C1523      C1524   1.397       .  A
C1523      H1542   1.084       .  S
C1524      C1525   1.412       .  A
C1524      C1536   1.443       .  S
C1525      C1526   1.405       .  A
C1526      H1541   1.084       .  S
C1527      C1528   1.406       .  A
C1527      C1532   1.417       .  A
C1528      C1529   1.405       .  A
C1528      H1543   1.084       .  S
C1529      C1530   1.414       .  A
C1529      C1533   1.445       .  S
C1530      C1531   1.402       .  A
C1531      C1532   1.405       .  A
C1531      H1544   1.085       .  S
C1532      C1534   1.444       .  S
C1533      N1537   1.157       .  T
C1534      N1538   1.157       .  T
C1535      N1540   1.157       .  T
C1536      N1539   1.157       .  T
C1545      C1546   1.409       .  A
C1545      C1550   1.403       .  A
C1545      C1559   1.444       .  S
C1546      C1551   1.490       .  S
C1546      C1547   1.403       .  A
C1547      C1548   1.405       .  A
C1547      H1566   1.084       .  S
C1548      C1549   1.415       .  A
C1548      C1560   1.443       .  S
C1549      C1550   1.406       .  A
C1550      H1565   1.084       .  S
C1551      C1552   1.401       .  A
C1551      C1556   1.409       .  A
C1552      C1553   1.407       .  A
C1552      H1567   1.085       .  S
C1553      C1554   1.423       .  A
C1553      C1557   1.444       .  S
C1554      C1555   1.408       .  A
C1555      C1556   1.400       .  A
C1555      H1568   1.084       .  S
C1556      C1558   1.443       .  S
C1557      N1561   1.157       .  T
C1558      N1562   1.157       .  T
C1559      N1564   1.157       .  T
C1560      N1563   1.157       .  T
C1569      C1570   1.412       .  A
C1569      C1574   1.403       .  A
C1569      C1583   1.444       .  S
C1570      C1575   1.497       .  S
C1570      C1571   1.405       .  A
C1571      C1572   1.405       .  A
C1571      H1590   1.084       .  S
C1572      C1573   1.416       .  A
C1572      C1584   1.444       .  S
C1573      C1574   1.407       .  A
C1574      H1589   1.085       .  S
C1575      C1576   1.404       .  A
C1575      C1580   1.413       .  A
C1576      C1577   1.402       .  A
C1576      H1591   1.085       .  S
C1577      C1578   1.417       .  A
C1577      C1581   1.445       .  S
C1578      C1579   1.406       .  A
C1579      C1580   1.407       .  A
C1579      H1592   1.084       .  S
C1580      C1582   1.443       .  S
C1581      N1585   1.157       .  T
C1582      N1586   1.157       .  T
C1583      N1588   1.157       .  T
C1584      N1587   1.157       .  T
C1593      C1594   1.412       .  A
C1593      C1598   1.402       .  A
C1593      C1607   1.444       .  S
C1594      C1599   1.494       .  S
C1594      C1595   1.407       .  A
C1595      C1596   1.401       .  A
C1595      H1614   1.085       .  S
C1596      C1597   1.410       .  A
C1596      C1608   1.445       .  S
C1597      C1598   1.404       .  A
C1598      H1613   1.084       .  S
C1599      C1600   1.412       .  A
C1599      C1604   1.410       .  A
C1600      C1601   1.407       .  A
C1600      H1615   1.084       .  S
C1601      C1602   1.406       .  A
C1601      C1605   1.442       .  S
C1602      C1603   1.406       .  A
C1603      C1604   1.398       .  A
C1603      H1616   1.085       .  S
C1604      C1606   1.445       .  S
C1605      N1609   1.157       .  T
C1606      N1610   1.157       .  T
C1607      N1612   1.157       .  T
C1608      N1611   1.157       .  T
C1617      C1618   1.418       .  A
C1617      C1622   1.408       .  A
C1617      C1631   1.444       .  S
C1618      C1623   1.502       .  S
C1618      C1619   1.403       .  A
C1619      C1620   1.394       .  A
C1619      H1638   1.084       .  S
C1620      C1621   1.417       .  A
C1620      C1632   1.446       .  S
C1621      C1622   1.408       .  A
C1622      H1637   1.084       .  S
C1623      C1624   1.408       .  A
C1623      C1628   1.416       .  A
C1624      C1625   1.405       .  A
C1624      H1639   1.084       .  S
C1625      C1626   1.413       .  A
C1625      C1629   1.442       .  S
C1626      C1627   1.403       .  A
C1627      C1628   1.400       .  A
C1627      H1640   1.083       .  S
C1628      C1630   1.445       .  S
C1629      N1633   1.157       .  T
C1630      N1634   1.157       .  T
C1631      N1636   1.157       .  T
C1632      N1635   1.157       .  T
C1641      C1642   1.413       .  A
C1641      C1646   1.404       .  A
C1641      C1655   1.444       .  S
C1642      C1647   1.490       .  S
C1642      C1643   1.405       .  A
C1643      C1644   1.399       .  A
C1643      H1662   1.084       .  S
C1644      C1645   1.410       .  A
C1644      C1656   1.445       .  S
C1645      C1646   1.404       .  A
C1646      H1661   1.084       .  S
C1647      C1648   1.405       .  A
C1647      C1652   1.410       .  A
C1648      C1649   1.404       .  A
C1648      H1663   1.085       .  S
C1649      C1650   1.415       .  A
C1649      C1653   1.442       .  S
C1650      C1651   1.407       .  A
C1651      C1652   1.398       .  A
C1651      H1664   1.085       .  S
C1652      C1654   1.445       .  S
C1653      N1657   1.157       .  T
C1654      N1658   1.157       .  T
C1655      N1660   1.157       .  T
C1656      N1659   1.157       .  T
C1665      C1666   1.415       .  A
C1665      C1670   1.406       .  A
C1665      C1679   1.444       .  S
C1666      C1671   1.509       .  S
C1666      C1667   1.412       .  A
C1667      C1668   1.406       .  A
C1667      H1686   1.084       .  S
C1668      C1669   1.410       .  A
C1668      C1680   1.443       .  S
C1669      C1670   1.408       .  A
C1670      H1685   1.085       .  S
C1671      C1672   1.410       .  A
C1671      C1676   1.415       .  A
C1672      C1673   1.408       .  A
C1672      H1687   1.080       .  S
C1673      C1674   1.413       .  A
C1673      C1677   1.444   1_554  S
C1674      C1675   1.410       .  A
C1675      C1676   1.401       .  A
C1675      H1688   1.085       .  S
C1676      C1678   1.445       .  S
C1677      N1681   1.157       .  T
C1678      N1682   1.157       .  T
C1679      N1684   1.157       .  T
C1680      N1683   1.157       .  T
C1689      C1690   1.411       .  A
C1689      C1694   1.397       .  A
C1689      C1703   1.444       .  S
C1690      C1695   1.488       .  S
C1690      C1691   1.407       .  A
C1691      C1692   1.400       .  A
C1691      H1710   1.085       .  S
C1692      C1693   1.411       .  A
C1692      C1704   1.441       .  S
C1693      C1694   1.407       .  A
C1694      H1709   1.085       .  S
C1695      C1696   1.395       .  A
C1695      C1700   1.417       .  A
C1696      C1697   1.390       .  A
C1696      H1711   1.085       .  S
C1697      C1698   1.423       .  A
C1697      C1701   1.445       .  S
C1698      C1699   1.404       .  A
C1699      C1700   1.407       .  A
C1699      H1712   1.084       .  S
C1700      C1702   1.443       .  S
C1701      N1705   1.157       .  T
C1702      N1706   1.157       .  T
C1703      N1708   1.157       .  T
C1704      N1707   1.157       .  T
C1713      C1714   1.410       .  A
C1713      C1718   1.400       .  A
C1713      C1727   1.445       .  S
C1714      C1719   1.491       .  S
C1714      C1715   1.406       .  A
C1715      C1716   1.404       .  A
C1715      H1734   1.084       .  S
C1716      C1717   1.413       .  A
C1716      C1728   1.443       .  S
C1717      C1718   1.408       .  A
C1718      H1733   1.085       .  S
C1719      C1720   1.404       .  A
C1719      C1724   1.410       .  A
C1720      C1721   1.402   1_556  A
C1720      H1735   1.085       .  S
C1721      C1722   1.417       .  A
C1721      C1725   1.444       .  S
C1722      C1723   1.410       .  A
C1723      C1724   1.401   1_554  A
C1723      H1736   1.084       .  S
C1724      C1726   1.444       .  S
C1725      N1729   1.157       .  T
C1726      N1730   1.157       .  T
C1727      N1732   1.157       .  T
C1728      N1731   1.157       .  T
C1737      C1738   1.409       .  A
C1737      C1742   1.404       .  A
C1737      C1751   1.443       .  S
C1738      C1743   1.491       .  S
C1738      C1739   1.402       .  A
C1739      C1740   1.405       .  A
C1739      H1758   1.085       .  S
C1740      C1741   1.421       .  A
C1740      C1752   1.444       .  S
C1741      C1742   1.410       .  A
C1742      H1757   1.083       .  S
C1743      C1744   1.404       .  A
C1743      C1748   1.407       .  A
C1744      C1745   1.407       .  A
C1744      H1759   1.085       .  S
C1745      C1746   1.418       .  A
C1745      C1749   1.443       .  S
C1746      C1747   1.412       .  A
C1747      C1748   1.402       .  A
C1747      H1760   1.084       .  S
C1748      C1750   1.444       .  S
C1749      N1753   1.157       .  T
C1750      N1754   1.157       .  T
C1751      N1756   1.157       .  T
C1752      N1755   1.157       .  T
C1761      C1762   1.408   1_545  A
C1761      C1766   1.397       .  A
C1761      C1775   1.445       .  S
C1762      C1767   1.480   1_565  S
C1762      C1763   1.400       .  A
C1763      C1764   1.401       .  A
C1763      H1782   1.085       .  S
C1764      C1765   1.419       .  A
C1764      C1776   1.444       .  S
C1765      C1766   1.408   1_565  A
C1766      H1781   1.084       .  S
C1767      C1768   1.401       .  A
C1767      C1772   1.407   1_545  A
C1768      C1769   1.399       .  A
C1768      H1783   1.085       .  S
C1769      C1770   1.415       .  A
C1769      C1773   1.444       .  S
C1770      C1771   1.408   1_545  A
C1771      C1772   1.401       .  A
C1771      H1784   1.085       .  S
C1772      C1774   1.444       .  S
C1773      N1777   1.157       .  T
C1774      N1778   1.157       .  T
C1775      N1780   1.157       .  T
C1776      N1779   1.157       .  T
C1785      C1786   1.420   1_565  A
C1785      C1790   1.406       .  A
C1785      C1799   1.444       .  S
C1786      C1791   1.498       .  S
C1786      C1787   1.402       .  A
C1787      C1788   1.396       .  A
C1787      H1806   1.084       .  S
C1788      C1789   1.411       .  A
C1788      C1800   1.441       .  S
C1789      C1790   1.400   1_545  A
C1790      H1805   1.084       .  S
C1791      C1792   1.404       .  A
C1791      C1796   1.420       .  A
C1792      C1793   1.395       .  A
C1792      H1807   1.083       .  S
C1793      C1794   1.410       .  A
C1793      C1797   1.445       .  S
C1794      C1795   1.401       .  A
C1795      C1796   1.406       .  A
C1795      H1808   1.084       .  S
C1796      C1798   1.444       .  S
C1797      N1801   1.157       .  T
C1798      N1802   1.157       .  T
C1799      N1804   1.157       .  T
C1800      N1803   1.156       .  T
C1809      C1810   1.413       .  A
C1809      C1814   1.408       .  A
C1809      C1823   1.444       .  S
C1810      C1815   1.495       .  S
C1810      C1811   1.401   1_655  A
C1811      C1812   1.402       .  A
C1811      H1830   1.085       .  S
C1812      C1813   1.421   1_455  A
C1812      C1824   1.444       .  S
C1813      C1814   1.409       .  A
C1814      H1829   1.084       .  S
C1815      C1816   1.405       .  A
C1815      C1820   1.413       .  A
C1816      C1817   1.404       .  A
C1816      H1831   1.085   1_655  S
C1817      C1818   1.413       .  A
C1817      C1821   1.444   1_655  S
C1818      C1819   1.406       .  A
C1819      C1820   1.405       .  A
C1819      H1832   1.085       .  S
C1820      C1822   1.443       .  S
C1821      N1825   1.157       .  T
C1822      N1826   1.157       .  T
C1823      N1828   1.157       .  T
C1824      N1827   1.157       .  T
C1833      C1834   1.413       .  A
C1833      C1838   1.398       .  A
C1833      C1847   1.444       .  S
C1834      C1839   1.487       .  S
C1834      C1835   1.404       .  A
C1835      C1836   1.399       .  A
C1835      H1854   1.085       .  S
C1836      C1837   1.412       .  A
C1836      C1848   1.443       .  S
C1837      C1838   1.405       .  A
C1838      H1853   1.085       .  S
C1839      C1840   1.408       .  A
C1839      C1844   1.409       .  A
C1840      C1841   1.401       .  A
C1840      H1855   1.085       .  S
C1841      C1842   1.407       .  A
C1841      C1845   1.443       .  S
C1842      C1843   1.407       .  A
C1843      C1844   1.397       .  A
C1843      H1856   1.085       .  S
C1844      C1846   1.445       .  S
C1845      N1849   1.157       .  T
C1846      N1850   1.157       .  T
C1847      N1852   1.157       .  T
C1848      N1851   1.157       .  T
C1857      C1858   1.411       .  A
C1857      C1862   1.400       .  A
C1857      C1871   1.444       .  S
C1858      C1863   1.499       .  S
C1858      C1859   1.409       .  A
C1859      C1860   1.406       .  A
C1859      H1878   1.084       .  S
C1860      C1861   1.413       .  A
C1860      C1872   1.443       .  S
C1861      C1862   1.410       .  A
C1862      H1877   1.085       .  S
C1863      C1864   1.411       .  A
C1863      C1868   1.411       .  A
C1864      C1865   1.407       .  A
C1864      H1879   1.084       .  S
C1865      C1866   1.408       .  A
C1865      C1869   1.443       .  S
C1866      C1867   1.406       .  A
C1867      C1868   1.401       .  A
C1867      H1880   1.085       .  S
C1868      C1870   1.444       .  S
C1869      N1873   1.157       .  T
C1870      N1874   1.157       .  T
C1871      N1876   1.157       .  T
C1872      N1875   1.157       .  T
C1881      C1882   1.413       .  A
C1881      C1886   1.402       .  A
C1881      C1895   1.444       .  S
C1882      C1887   1.491       .  S
C1882      C1883   1.404   1_655  A
C1883      C1884   1.399       .  A
C1883      H1902   1.085       .  S
C1884      C1885   1.415   1_455  A
C1884      C1896   1.444       .  S
C1885      C1886   1.405       .  A
C1886      H1901   1.085       .  S
C1887      C1888   1.406       .  A
C1887      C1892   1.414   1_655  A
C1888      C1889   1.402       .  A
C1888      H1903   1.084       .  S
C1889      C1890   1.409       .  A
C1889      C1893   1.444       .  S
C1890      C1891   1.401   1_655  A
C1891      C1892   1.399       .  A
C1891      H1904   1.085       .  S
C1892      C1894   1.444       .  S
C1893      N1897   1.157       .  T
C1894      N1898   1.157       .  T
C1895      N1900   1.157       .  T
C1896      N1899   1.157       .  T
C1905      C1906   1.418       .  A
C1905      C1910   1.411       .  A
C1905      C1919   1.443       .  S
C1906      C1911   1.499       .  S
C1906      C1907   1.397       .  A
C1907      C1908   1.392       .  A
C1907      H1926   1.085       .  S
C1908      C1909   1.426       .  A
C1908      C1920   1.445       .  S
C1909      C1910   1.407       .  A
C1910      H1925   1.084       .  S
C1911      C1912   1.405       .  A
C1911      C1916   1.416       .  A
C1912      C1913   1.403       .  A
C1912      H1927   1.084       .  S
C1913      C1914   1.414       .  A
C1913      C1917   1.440       .  S
C1914      C1915   1.403       .  A
C1915      C1916   1.401       .  A
C1915      H1928   1.084       .  S
C1916      C1918   1.445       .  S
C1917      N1921   1.156       .  T
C1918      N1922   1.157       .  T
C1919      N1924   1.157       .  T
C1920      N1923   1.156       .  T
C1929      C1930   1.409   1_655  A
C1929      C1934   1.403   1_556  A
C1929      C1943   1.443       .  S
C1930      C1935   1.480       .  S
C1930      C1931   1.396       .  A
C1931      C1932   1.397   1_556  A
C1931      H1950   1.085       .  S
C1932      C1933   1.424       .  A
C1932      C1944   1.445       .  S
C1933      C1934   1.408   1_455  A
C1934      H1949   1.084       .  S
C1935      C1936   1.397       .  A
C1935      C1940   1.408       .  A
C1936      C1937   1.401       .  A
C1936      H1951   1.085       .  S
C1937      C1938   1.424       .  A
C1937      C1941   1.445       .  S
C1938      C1939   1.408       .  A
C1939      C1940   1.400       .  A
C1939      H1952   1.084       .  S
C1940      C1942   1.444       .  S
C1941      N1945   1.158       .  T
C1942      N1946   1.157       .  T
C1943      N1948   1.157       .  T
C1944      N1947   1.158       .  T
C1953      C1954   1.412   1_655  A
C1953      C1958   1.395       .  A
C1953      C1967   1.443       .  S
C1954      C1959   1.482       .  S
C1954      C1955   1.403       .  A
C1955      C1956   1.403       .  A
C1955      H1974   1.085       .  S
C1956      C1957   1.412       .  A
C1956      C1968   1.444       .  S
C1957      C1958   1.399   1_455  A
C1958      H1973   1.085       .  S
C1959      C1960   1.396       .  A
C1959      C1964   1.412       .  A
C1960      C1961   1.394       .  A
C1960      H1975   1.086   1_455  S
C1961      C1962   1.417       .  A
C1961      C1965   1.442   1_455  S
C1962      C1963   1.405       .  A
C1963      C1964   1.407       .  A
C1963      H1976   1.084       .  S
C1964      C1966   1.443       .  S
C1965      N1969   1.156       .  T
C1966      N1970   1.157       .  T
C1967      N1972   1.157       .  T
C1968      N1971   1.157       .  T
C1977      C1978   1.416       .  A
C1977      C1982   1.408       .  A
C1977      C1991   1.443       .  S
C1978      C1983   1.494       .  S
C1978      C1979   1.398       .  A
C1979      C1980   1.401       .  A
C1979      H1998   1.085       .  S
C1980      C1981   1.424       .  A
C1980      C1992   1.446       .  S
C1981      C1982   1.404       .  A
C1982      H1997   1.084       .  S
C1983      C1984   1.402       .  A
C1983      C1988   1.413       .  A
C1984      C1985   1.402       .  A
C1984      H1999   1.085       .  S
C1985      C1986   1.414       .  A
C1985      C1989   1.441       .  S
C1986      C1987   1.408       .  A
C1987      C1988   1.406       .  A
C1987      H2000   1.084   1_554  S
C1988      C1990   1.444   1_554  S
C1989      N1993   1.156       .  T
C1990      N1994   1.157       .  T
C1991      N1996   1.157       .  T
C1992      N1995   1.158       .  T
C2001      C2002   1.411   1_655  A
C2001      C2006   1.400       .  A
C2001      C2015   1.444       .  S
C2002      C2007   1.485       .  S
C2002      C2003   1.402       .  A
C2003      C2004   1.400       .  A
C2003      H2022   1.085       .  S
C2004      C2005   1.414       .  A
C2004      C2016   1.444       .  S
C2005      C2006   1.405   1_455  A
C2006      H2021   1.085       .  S
C2007      C2008   1.402       .  A
C2007      C2012   1.412       .  A
C2008      C2009   1.399       .  A
C2008      H2023   1.085       .  S
C2009      C2010   1.413       .  A
C2009      C2013   1.445       .  S
C2010      C2011   1.404       .  A
C2011      C2012   1.401       .  A
C2011      H2024   1.084       .  S
C2012      C2014   1.444       .  S
C2013      N2017   1.157   1_455  T
C2014      N2018   1.157       .  T
C2015      N2020   1.157       .  T
C2016      N2019   1.157       .  T
C2025      C2026   1.408       .  A
C2025      C2030   1.401       .  A
C2025      C2039   1.444       .  S
C2026      C2031   1.484       .  S
C2026      C2027   1.402       .  A
C2027      C2028   1.403       .  A
C2027      H2046   1.085       .  S
C2028      C2029   1.416       .  A
C2028      C2040   1.444       .  S
C2029      C2030   1.408       .  A
C2030      H2045   1.084       .  S
C2031      C2032   1.401       .  A
C2031      C2036   1.408       .  A
C2032      C2033   1.403       .  A
C2032      H2047   1.085       .  S
C2033      C2034   1.417       .  A
C2033      C2037   1.444       .  S
C2034      C2035   1.408       .  A
C2035      C2036   1.401       .  A
C2035      H2048   1.084       .  S
C2036      C2038   1.444       .  S
C2037      N2041   1.157       .  T
C2038      N2042   1.157       .  T
C2039      N2044   1.157       .  T
C2040      N2043   1.157       .  T
C2049      C2050   1.414       .  A
C2049      C2054   1.405       .  A
C2049      C2063   1.443       .  S
C2050      C2055   1.492       .  S
C2050      C2051   1.404       .  A
C2051      C2052   1.397       .  A
C2051      H2070   1.085   1_455  S
C2052      C2053   1.413       .  A
C2052      C2064   1.444   1_455  S
C2053      C2054   1.405       .  A
C2054      H2069   1.085       .  S
C2055      C2056   1.404       .  A
C2055      C2060   1.414       .  A
C2056      C2057   1.397   1_455  A
C2056      H2071   1.085   1_455  S
C2057      C2058   1.413   1_655  A
C2057      C2061   1.444       .  S
C2058      C2059   1.406       .  A
C2059      C2060   1.405       .  A
C2059      H2072   1.084       .  S
C2060      C2062   1.443       .  S
C2061      N2065   1.157       .  T
C2062      N2066   1.157       .  T
C2063      N2068   1.157       .  T
C2064      N2067   1.157       .  T
C2073      C2074   1.410       .  A
C2073      C2078   1.397       .  A
C2073      C2087   1.445       .  S
C2074      C2079   1.482       .  S
C2074      C2075   1.403       .  A
C2075      C2076   1.400       .  A
C2075      H2094   1.085       .  S
C2076      C2077   1.412       .  A
C2076      C2088   1.444       .  S
C2077      C2078   1.404       .  A
C2078      H2093   1.085       .  S
C2079      C2080   1.403       .  A
C2079      C2084   1.411       .  A
C2080      C2081   1.400       .  A
C2080      H2095   1.085       .  S
C2081      C2082   1.413       .  A
C2081      C2085   1.444       .  S
C2082      C2083   1.404       .  A
C2083      C2084   1.397       .  A
C2083      H2096   1.085       .  S
C2084      C2086   1.445       .  S
C2085      N2089   1.157       .  T
C2086      N2090   1.157       .  T
C2087      N2092   1.157       .  T
C2088      N2091   1.157       .  T
C2097      C2098   1.411       .  A
C2097      C2102   1.404       .  A
C2097      C2111   1.444       .  S
C2098      C2103   1.495       .  S
C2098      C2099   1.405   1_655  A
C2099      C2100   1.403       .  A
C2099      H2118   1.085       .  S
C2100      C2101   1.415       .  A
C2100      C2112   1.444       .  S
C2101      C2102   1.409   1_455  A
C2102      H2117   1.083       .  S
C2103      C2104   1.406       .  A
C2103      C2108   1.412   1_655  A
C2104      C2105   1.407       .  A
C2104      H2119   1.084       .  S
C2105      C2106   1.415       .  A
C2105      C2109   1.443       .  S
C2106      C2107   1.406   1_655  A
C2107      C2108   1.398       .  A
C2107      H2120   1.085       .  S
C2108      C2110   1.443       .  S
C2109      N2113   1.157       .  T
C2110      N2114   1.157       .  T
C2111      N2116   1.157       .  T
C2112      N2115   1.157       .  T
C2121      C2122   1.409       .  A
C2121      C2126   1.401       .  A
C2121      C2135   1.444   1_655  S
C2122      C2127   1.488       .  S
C2122      C2123   1.404       .  A
C2123      C2124   1.404       .  A
C2123      H2142   1.085       .  S
C2124      C2125   1.414       .  A
C2124      C2136   1.443       .  S
C2125      C2126   1.408       .  A
C2126      H2141   1.084       .  S
C2127      C2128   1.405       .  A
C2127      C2132   1.409   1_655  A
C2128      C2129   1.407   1_554  A
C2128      H2143   1.084       .  S
C2129      C2130   1.417   1_655  A
C2129      C2133   1.443       .  S
C2130      C2131   1.407       .  A
C2131      C2132   1.397   1_556  A
C2131      H2144   1.085       .  S
C2132      C2134   1.445       .  S
C2133      N2137   1.157       .  T
C2134      N2138   1.157       .  T
C2135      N2140   1.157       .  T
C2136      N2139   1.157       .  T
C2145      C2146   1.411       .  A
C2145      C2150   1.404       .  A
C2145      C2159   1.444       .  S
C2146      C2151   1.492       .  S
C2146      C2147   1.404       .  A
C2147      C2148   1.401       .  A
C2147      H2166   1.085       .  S
C2148      C2149   1.415       .  A
C2148      C2160   1.444       .  S
C2149      C2150   1.407       .  A
C2150      H2165   1.085       .  S
C2151      C2152   1.405       .  A
C2151      C2156   1.411       .  A
C2152      C2153   1.405       .  A
C2152      H2167   1.085       .  S
C2153      C2154   1.413       .  A
C2153      C2157   1.443       .  S
C2154      C2155   1.405       .  A
C2155      C2156   1.401       .  A
C2155      H2168   1.085       .  S
C2156      C2158   1.444       .  S
C2157      N2161   1.157       .  T
C2158      N2162   1.157       .  T
C2159      N2164   1.157       .  T
C2160      N2163   1.157       .  T
C2169      C2170   1.408       .  A
C2169      C2174   1.399       .  A
C2169      C2183   1.444       .  S
C2170      C2175   1.490       .  S
C2170      C2171   1.410       .  A
C2171      C2172   1.405       .  A
C2171      H2190   1.084       .  S
C2172      C2173   1.407       .  A
C2172      C2184   1.443       .  S
C2173      C2174   1.406       .  A
C2174      H2189   1.085       .  S
C2175      C2176   1.406       .  A
C2175      C2180   1.410       .  A
C2176      C2177   1.401       .  A
C2176      H2191   1.084       .  S
C2177      C2178   1.408       .  A
C2177      C2181   1.444       .  S
C2178      C2179   1.404       .  A
C2179      C2180   1.400       .  A
C2179      H2192   1.085       .  S
C2180      C2182   1.444       .  S
C2181      N2185   1.157       .  T
C2182      N2186   1.157       .  T
C2183      N2188   1.157       .  T
C2184      N2187   1.157       .  T
C2193      C2194   1.413       .  A
C2193      C2198   1.402       .  A
C2193      C2207   1.443       .  S
C2194      C2199   1.500       .  S
C2194      C2195   1.410       .  A
C2195      C2196   1.407       .  A
C2195      H2214   1.084       .  S
C2196      C2197   1.409       .  A
C2196      C2208   1.443       .  S
C2197      C2198   1.402       .  A
C2198      H2213   1.085       .  S
C2199      C2200   1.404       .  A
C2199      C2204   1.415       .  A
C2200      C2201   1.401       .  A
C2200      H2215   1.084       .  S
C2201      C2202   1.416       .  A
C2201      C2205   1.444       .  S
C2202      C2203   1.408       .  A
C2203      C2204   1.409       .  A
C2203      H2216   1.083       .  S
C2204      C2206   1.443       .  S
C2205      N2209   1.157       .  T
C2206      N2210   1.157       .  T
C2207      N2212   1.157       .  T
C2208      N2211   1.157       .  T
C2217      C2218   1.410       .  A
C2217      C2222   1.403       .  A
C2217      C2231   1.444       .  S
C2218      C2223   1.495       .  S
C2218      C2219   1.405       .  A
C2219      C2220   1.403       .  A
C2219      H2238   1.085       .  S
C2220      C2221   1.418       .  A
C2220      C2232   1.445       .  S
C2221      C2222   1.409       .  A
C2222      H2237   1.085       .  S
C2223      C2224   1.408       .  A
C2223      C2228   1.412       .  A
C2224      C2225   1.406       .  A
C2224      H2239   1.084       .  S
C2225      C2226   1.410       .  A
C2225      C2229   1.441       .  S
C2226      C2227   1.403       .  A
C2227      C2228   1.399       .  A
C2227      H2240   1.085       .  S
C2228      C2230   1.444       .  S
C2229      N2233   1.156       .  T
C2230      N2234   1.157       .  T
C2231      N2236   1.157       .  T
C2232      N2235   1.158       .  T
C2241      C2242   1.410       .  A
C2241      C2246   1.400       .  A
C2241      C2255   1.440       .  S
C2242      C2247   1.489       .  S
C2242      C2243   1.404       .  A
C2243      C2244   1.398       .  A
C2243      H2262   1.083       .  S
C2244      C2245   1.416       .  A
C2244      C2256   1.445       .  S
C2245      C2246   1.407       .  A
C2246      H2261   1.084       .  S
C2247      C2248   1.395       .  A
C2247      C2252   1.415       .  A
C2248      C2249   1.390       .  A
C2248      H2263   1.086       .  S
C2249      C2250   1.425       .  A
C2249      C2253   1.447       .  S
C2250      C2251   1.406       .  A
C2251      C2252   1.410       .  A
C2251      H2264   1.084       .  S
C2252      C2254   1.443       .  S
C2253      N2257   1.157       .  T
C2254      N2258   1.157       .  T
C2255      N2260   1.156       .  T
C2256      N2259   1.157       .  T
C2265      C2266   1.409       .  A
C2265      C2270   1.402       .  A
C2265      C2279   1.444       .  S
C2266      C2271   1.495       .  S
C2266      C2267   1.404       .  A
C2267      C2268   1.409       .  A
C2267      H2286   1.084       .  S
C2268      C2269   1.421       .  A
C2268      C2280   1.444       .  S
C2269      C2270   1.410       .  A
C2270      H2285   1.084       .  S
C2271      C2272   1.399       .  A
C2271      C2276   1.412   1_545  A
C2272      C2273   1.404       .  A
C2272      H2287   1.085       .  S
C2273      C2274   1.423       .  A
C2273      C2277   1.445       .  S
C2274      C2275   1.407   1_545  A
C2275      C2276   1.409       .  A
C2275      H2288   1.084       .  S
C2276      C2278   1.443       .  S
C2277      N2281   1.157       .  T
C2278      N2282   1.157       .  T
C2279      N2284   1.157       .  T
C2280      N2283   1.158       .  T
C2289      C2290   1.406       .  A
C2289      C2294   1.401       .  A
C2289      C2303   1.444       .  S
C2290      C2295   1.486       .  S
C2290      C2291   1.402       .  A
C2291      C2292   1.404       .  A
C2291      H2310   1.085       .  S
C2292      C2293   1.419       .  A
C2292      C2304   1.444       .  S
C2293      C2294   1.412       .  A
C2294      H2309   1.084       .  S
C2295      C2296   1.402       .  A
C2295      C2300   1.407       .  A
C2296      C2297   1.403   1_545  A
C2296      H2311   1.085   1_545  S
C2297      C2298   1.417   1_565  A
C2297      C2301   1.444       .  S
C2298      C2299   1.408       .  A
C2299      C2300   1.402       .  A
C2299      H2312   1.083       .  S
C2300      C2302   1.443       .  S
C2301      N2305   1.157       .  T
C2302      N2306   1.157       .  T
C2303      N2308   1.157       .  T
C2304      N2307   1.157       .  T
C2313      C2314   1.411       .  A
C2313      C2318   1.392       .  A
C2313      C2327   1.446       .  S
C2314      C2319   1.491       .  S
C2314      C2315   1.407       .  A
C2315      C2316   1.406   1_556  A
C2315      H2334   1.084       .  S
C2316      C2317   1.415   1_554  A
C2316      C2328   1.443       .  S
C2317      C2318   1.409       .  A
C2318      H2333   1.085       .  S
C2319      C2320   1.404       .  A
C2319      C2324   1.416       .  A
C2320      C2321   1.395       .  A
C2320      H2335   1.085       .  S
C2321      C2322   1.408       .  A
C2321      C2325   1.444       .  S
C2322      C2323   1.400       .  A
C2323      C2324   1.403       .  A
C2323      H2336   1.085       .  S
C2324      C2326   1.441   1_556  S
C2325      N2329   1.157       .  T
C2326      N2330   1.156       .  T
C2327      N2332   1.157       .  T
C2328      N2331   1.157       .  T
C2337      C2338   1.407       .  A
C2337      C2342   1.402       .  A
C2337      C2351   1.443       .  S
C2338      C2343   1.482       .  S
C2338      C2339   1.399       .  A
C2339      C2340   1.399       .  A
C2339      H2358   1.085       .  S
C2340      C2341   1.419       .  A
C2340      C2352   1.445   1_545  S
C2341      C2342   1.408       .  A
C2342      H2357   1.084       .  S
C2343      C2344   1.401       .  A
C2343      C2348   1.407       .  A
C2344      C2345   1.405       .  A
C2344      H2359   1.085       .  S
C2345      C2346   1.420       .  A
C2345      C2349   1.444       .  S
C2346      C2347   1.407       .  A
C2347      C2348   1.397       .  A
C2347      H2360   1.084       .  S
C2348      C2350   1.445       .  S
C2349      N2353   1.158       .  T
C2350      N2354   1.157   1_545  T
C2351      N2356   1.157       .  T
C2352      N2355   1.157       .  T
C2361      C2362   1.411   1_554  A
C2361      C2366   1.403   1_554  A
C2361      C2375   1.444       .  S
C2362      C2367   1.493   1_556  S
C2362      C2363   1.402       .  A
C2363      C2364   1.402       .  A
C2363      H2382   1.085       .  S
C2364      C2365   1.420       .  A
C2364      C2376   1.445   1_545  S
C2365      C2366   1.407       .  A
C2366      H2381   1.082   1_556  S
C2367      C2368   1.403       .  A
C2367      C2372   1.411       .  A
C2368      C2369   1.403       .  A
C2368      H2383   1.084   1_554  S
C2369      C2370   1.419       .  A
C2369      C2373   1.444       .  S
C2370      C2371   1.409       .  A
C2371      C2372   1.401       .  A
C2371      H2384   1.084   1_545  S
C2372      C2374   1.445   1_545  S
C2373      N2377   1.157       .  T
C2374      N2378   1.157       .  T
C2375      N2380   1.157       .  T
C2376      N2379   1.158       .  T
C2385      C2386   1.408   1_545  A
C2385      C2390   1.403   1_545  A
C2385      C2399   1.444       .  S
C2386      C2391   1.488   1_565  S
C2386      C2387   1.400       .  A
C2387      C2388   1.404       .  A
C2387      H2406   1.084       .  S
C2388      C2389   1.423       .  A
C2388      C2400   1.445       .  S
C2389      C2390   1.409       .  A
C2390      H2405   1.084   1_565  S
C2391      C2392   1.404       .  A
C2391      C2396   1.407   1_545  A
C2392      C2393   1.404       .  A
C2392      H2407   1.085       .  S
C2393      C2394   1.417       .  A
C2393      C2397   1.444       .  S
C2394      C2395   1.409   1_545  A
C2395      C2396   1.402       .  A
C2395      H2408   1.084       .  S
C2396      C2398   1.443       .  S
C2397      N2401   1.157       .  T
C2398      N2402   1.157       .  T
C2399      N2404   1.157       .  T
C2400      N2403   1.158       .  T
C2409      C2410   1.408       .  A
C2409      C2414   1.404       .  A
C2409      C2423   1.443       .  S
C2410      C2415   1.483   1_565  S
C2410      C2411   1.399   1_565  A
C2411      C2412   1.399   1_545  A
C2411      H2430   1.085       .  S
C2412      C2413   1.420       .  A
C2412      C2424   1.444   1_565  S
C2413      C2414   1.410       .  A
C2414      H2429   1.084       .  S
C2415      C2416   1.398   1_545  A
C2415      C2420   1.410       .  A
C2416      C2417   1.400       .  A
C2416      H2431   1.085       .  S
C2417      C2418   1.421   1_565  A
C2417      C2421   1.444       .  S
C2418      C2419   1.408       .  A
C2419      C2420   1.403       .  A
C2419      H2432   1.084       .  S
C2420      C2422   1.444       .  S
C2421      N2425   1.157       .  T
C2422      N2426   1.157       .  T
C2423      N2428   1.157       .  T
C2424      N2427   1.157       .  T
C2433      C2434   1.411       .  A
C2433      C2438   1.406       .  A
C2433      C2447   1.443       .  S
C2434      C2439   1.490       .  S
C2434      C2435   1.401       .  A
C2435      C2436   1.403       .  A
C2435      H2454   1.084       .  S
C2436      C2437   1.419       .  A
C2436      C2448   1.445       .  S
C2437      C2438   1.406       .  A
C2438      H2453   1.084       .  S
C2439      C2440   1.400       .  A
C2439      C2444   1.409       .  A
C2440      C2441   1.403       .  A
C2440      H2455   1.085       .  S
C2441      C2442   1.421       .  A
C2441      C2445   1.443       .  S
C2442      C2443   1.412       .  A
C2443      C2444   1.406       .  A
C2443      H2456   1.084       .  S
C2444      C2446   1.444       .  S
C2445      N2449   1.157       .  T
C2446      N2450   1.157       .  T
C2447      N2452   1.157       .  T
C2448      N2451   1.158       .  T
C2457      C2458   1.414       .  A
C2457      C2462   1.406       .  A
C2457      C2471   1.444       .  S
C2458      C2463   1.487       .  S
C2458      C2459   1.398       .  A
C2459      C2460   1.398       .  A
C2459      H2478   1.085       .  S
C2460      C2461   1.418       .  A
C2460      C2472   1.445       .  S
C2461      C2462   1.403       .  A
C2462      H2477   1.084       .  S
C2463      C2464   1.402       .  A
C2463      C2468   1.411       .  A
C2464      C2465   1.401       .  A
C2464      H2479   1.085       .  S
C2465      C2466   1.414       .  A
C2465      C2469   1.443       .  S
C2466      C2467   1.405   1_556  A
C2467      C2468   1.401   1_554  A
C2467      H2480   1.084       .  S
C2468      C2470   1.443   1_556  S
C2469      N2473   1.157       .  T
C2470      N2474   1.157       .  T
C2471      N2476   1.157       .  T
C2472      N2475   1.157       .  T
C2481      C2482   1.407       .  A
C2481      C2486   1.390       .  A
C2481      C2495   1.447       .  S
C2482      C2487   1.490       .  S
C2482      C2483   1.409       .  A
C2483      C2484   1.409       .  A
C2483      H2502   1.084       .  S
C2484      C2485   1.414       .  A
C2484      C2496   1.442       .  S
C2485      C2486   1.412       .  A
C2486      H2501   1.085       .  S
C2487      C2488   1.404       .  A
C2487      C2492   1.411       .  A
C2488      C2489   1.397       .  A
C2488      H2503   1.085       .  S
C2489      C2490   1.414       .  A
C2489      C2493   1.443       .  S
C2490      C2491   1.407       .  A
C2491      C2492   1.402       .  A
C2491      H2504   1.084       .  S
C2492      C2494   1.444       .  S
C2493      N2497   1.157       .  T
C2494      N2498   1.157       .  T
C2495      N2500   1.157       .  T
C2496      N2499   1.157       .  T
C2505      C2506   1.412       .  A
C2505      C2510   1.405       .  A
C2505      C2519   1.443       .  S
C2506      C2511   1.494       .  S
C2506      C2507   1.403       .  A
C2507      C2508   1.401       .  A
C2507      H2526   1.085       .  S
C2508      C2509   1.416       .  A
C2508      C2520   1.445       .  S
C2509      C2510   1.406       .  A
C2510      H2525   1.085       .  S
C2511      C2512   1.406       .  A
C2511      C2516   1.414       .  A
C2512      C2513   1.404       .  A
C2512      H2527   1.088       .  S
C2513      C2514   1.410       .  A
C2513      C2517   1.443       .  S
C2514      C2515   1.401       .  A
C2515      C2516   1.400       .  A
C2515      H2528   1.095       .  S
C2516      C2518   1.444       .  S
C2517      N2521   1.157       .  T
C2518      N2522   1.157       .  T
C2519      N2524   1.157       .  T
C2520      N2523   1.157       .  T
C2529      C2530   1.415       .  A
C2529      C2534   1.402       .  A
C2529      C2543   1.445       .  S
C2530      C2535   1.499       .  S
C2530      C2531   1.407       .  A
C2531      C2532   1.404       .  A
C2531      H2550   1.085       .  S
C2532      C2533   1.415       .  A
C2532      C2544   1.444       .  S
C2533      C2534   1.406       .  A
C2534      H2549   1.084       .  S
C2535      C2536   1.410       .  A
C2535      C2540   1.412       .  A
C2536      C2537   1.410       .  A
C2536      H2551   1.085       .  S
C2537      C2538   1.415       .  A
C2537      C2541   1.443       .  S
C2538      C2539   1.411       .  A
C2539      C2540   1.396       .  A
C2539      H2552   1.084       .  S
C2540      C2542   1.446       .  S
C2541      N2545   1.157       .  T
C2542      N2546   1.157       .  T
C2543      N2548   1.157       .  T
C2544      N2547   1.157       .  T
C2553      C2554   1.407       .  A
C2553      C2558   1.403       .  A
C2553      C2567   1.443       .  S
C2554      C2559   1.488       .  S
C2554      C2555   1.400       .  A
C2555      C2556   1.403       .  A
C2555      H2574   1.085       .  S
C2556      C2557   1.422       .  A
C2556      C2568   1.444       .  S
C2557      C2558   1.410       .  A
C2558      H2573   1.084       .  S
C2559      C2560   1.403       .  A
C2559      C2564   1.406       .  A
C2560      C2561   1.406       .  A
C2560      H2575   1.084       .  S
C2561      C2562   1.419       .  A
C2561      C2565   1.443       .  S
C2562      C2563   1.412       .  A
C2563      C2564   1.400       .  A
C2563      H2576   1.084       .  S
C2564      C2566   1.444       .  S
C2565      N2569   1.157       .  T
C2566      N2570   1.157       .  T
C2567      N2572   1.157       .  T
C2568      N2571   1.157       .  T
C2577      C2578   1.407       .  A
C2577      C2582   1.398       .  A
C2577      C2591   1.444       .  S
C2578      C2583   1.483       .  S
C2578      C2579   1.401       .  A
C2579      C2580   1.400       .  A
C2579      H2598   1.095       .  S
C2580      C2581   1.417       .  A
C2580      C2592   1.444       .  S
C2581      C2582   1.408       .  A
C2582      H2597   1.102       .  S
C2583      C2584   1.402       .  A
C2583      C2588   1.406       .  A
C2584      C2585   1.404   1_554  A
C2584      H2599   1.087       .  S
C2585      C2586   1.418       .  A
C2585      C2589   1.443       .  S
C2586      C2587   1.409       .  A
C2587      C2588   1.398   1_556  A
C2587      H2600   1.086       .  S
C2588      C2590   1.444       .  S
C2589      N2593   1.157       .  T
C2590      N2594   1.157       .  T
C2591      N2596   1.157       .  T
C2592      N2595   1.157       .  T
C2601      C2602   1.411       .  A
C2601      C2606   1.400       .  A
C2601      C2615   1.445       .  S
C2602      C2607   1.495       .  S
C2602      C2603   1.407       .  A
C2603      C2604   1.405       .  A
C2603      H2622   1.084       .  S
C2604      C2605   1.414       .  A
C2604      C2616   1.443       .  S
C2605      C2606   1.411       .  A
C2606      H2621   1.085       .  S
C2607      C2608   1.401       .  A
C2607      C2612   1.418       .  A
C2608      C2609   1.399       .  A
C2608      H2623   1.084       .  S
C2609      C2610   1.416       .  A
C2609      C2613   1.445       .  S
C2610      C2611   1.402       .  A
C2611      C2612   1.407       .  A
C2611      H2624   1.084       .  S
C2612      C2614   1.444       .  S
C2613      N2617   1.157       .  T
C2614      N2618   1.157       .  T
C2615      N2620   1.157       .  T
C2616      N2619   1.157       .  T
C2625      C2626   1.408       .  A
C2625      C2630   1.401       .  A
C2625      C2639   1.444       .  S
C2626      C2631   1.485       .  S
C2626      C2627   1.402       .  A
C2627      C2628   1.404       .  A
C2627      H2646   1.084       .  S
C2628      C2629   1.418       .  A
C2628      C2640   1.444       .  S
C2629      C2630   1.408       .  A
C2630      H2645   1.084       .  S
C2631      C2632   1.400       .  A
C2631      C2636   1.411       .  A
C2632      C2633   1.400       .  A
C2632      H2647   1.085       .  S
C2633      C2634   1.417       .  A
C2633      C2637   1.444       .  S
C2634      C2635   1.407       .  A
C2635      C2636   1.404       .  A
C2635      H2648   1.085       .  S
C2636      C2638   1.444       .  S
C2637      N2641   1.157       .  T
C2638      N2642   1.157       .  T
C2639      N2644   1.157       .  T
C2640      N2643   1.157       .  T
C2649      C2650   1.409       .  A
C2649      C2654   1.399       .  A
C2649      C2663   1.444       .  S
C2650      C2655   1.485       .  S
C2650      C2651   1.401       .  A
C2651      C2652   1.401       .  A
C2651      H2670   1.085       .  S
C2652      C2653   1.420       .  A
C2652      C2664   1.444       .  S
C2653      C2654   1.408       .  A
C2654      H2669   1.084       .  S
C2655      C2656   1.402       .  A
C2655      C2660   1.410       .  A
C2656      C2657   1.399       .  A
C2656      H2671   1.085       .  S
C2657      C2658   1.415       .  A
C2657      C2661   1.445       .  S
C2658      C2659   1.406       .  A
C2659      C2660   1.401       .  A
C2659      H2672   1.084       .  S
C2660      C2662   1.444       .  S
C2661      N2665   1.157   1_565  T
C2662      N2666   1.157       .  T
C2663      N2668   1.157       .  T
C2664      N2667   1.157       .  T
C2673      C2674   1.407       .  A
C2673      C2678   1.403       .  A
C2673      C2687   1.443       .  S
C2674      C2679   1.487       .  S
C2674      C2675   1.400       .  A
C2675      C2676   1.403       .  A
C2675      H2694   1.085       .  S
C2676      C2677   1.420       .  A
C2676      C2688   1.444       .  S
C2677      C2678   1.410       .  A
C2678      H2693   1.084       .  S
C2679      C2680   1.402       .  A
C2679      C2684   1.409       .  A
C2680      C2681   1.405       .  A
C2680      H2695   1.084       .  S
C2681      C2682   1.416       .  A
C2681      C2685   1.444       .  S
C2682      C2683   1.406       .  A
C2683      C2684   1.403       .  A
C2683      H2696   1.084       .  S
C2684      C2686   1.444       .  S
C2685      N2689   1.157       .  T
C2686      N2690   1.157       .  T
C2687      N2692   1.157       .  T
C2688      N2691   1.157       .  T
C2697      C2698   1.412       .  A
C2697      C2702   1.405       .  A
C2697      C2711   1.444       .  S
C2698      C2703   1.493       .  S
C2698      C2699   1.403       .  A
C2699      C2700   1.402       .  A
C2699      H2718   1.084       .  S
C2700      C2701   1.417       .  A
C2700      C2712   1.445       .  S
C2701      C2702   1.408       .  A
C2702      H2717   1.084       .  S
C2703      C2704   1.403       .  A
C2703      C2708   1.411       .  A
C2704      C2705   1.405       .  A
C2704      H2719   1.084       .  S
C2705      C2706   1.419       .  A
C2705      C2709   1.444       .  S
C2706      C2707   1.407       .  A
C2707      C2708   1.402       .  A
C2707      H2720   1.084       .  S
C2708      C2710   1.444       .  S
C2709      N2713   1.157       .  T
C2710      N2714   1.157       .  T
C2711      N2716   1.157       .  T
C2712      N2715   1.157       .  T
C2721      C2722   1.405       .  A
C2721      C2726   1.398   1_556  A
C2721      C2735   1.444       .  S
C2722      C2727   1.479       .  S
C2722      C2723   1.401       .  A
C2723      C2724   1.402   1_556  A
C2723      H2742   1.085       .  S
C2724      C2725   1.417       .  A
C2724      C2736   1.444       .  S
C2725      C2726   1.409       .  A
C2726      H2741   1.084       .  S
C2727      C2728   1.398       .  A
C2727      C2732   1.407       .  A
C2728      C2729   1.399       .  A
C2728      H2743   1.085       .  S
C2729      C2730   1.420       .  A
C2729      C2733   1.444       .  S
C2730      C2731   1.409       .  A
C2731      C2732   1.401       .  A
C2731      H2744   1.084       .  S
C2732      C2734   1.444       .  S
C2733      N2737   1.157       .  T
C2734      N2738   1.157       .  T
C2735      N2740   1.157       .  T
C2736      N2739   1.157       .  T
C2745      C2746   1.408       .  A
C2745      C2750   1.396       .  A
C2745      C2759   1.445       .  S
C2746      C2751   1.479       .  S
C2746      C2747   1.399       .  A
C2747      C2748   1.400       .  A
C2747      H2766   1.085       .  S
C2748      C2749   1.420       .  A
C2748      C2760   1.445       .  S
C2749      C2750   1.408       .  A
C2750      H2765   1.084       .  S
C2751      C2752   1.402       .  A
C2751      C2756   1.405       .  A
C2752      C2753   1.401       .  A
C2752      H2767   1.085       .  S
C2753      C2754   1.417       .  A
C2753      C2757   1.444       .  S
C2754      C2755   1.411       .  A
C2755      C2756   1.396       .  A
C2755      H2768   1.084       .  S
C2756      C2758   1.445       .  S
C2757      N2761   1.157       .  T
C2758      N2762   1.157       .  T
C2759      N2764   1.157       .  T
C2760      N2763   1.158       .  T
C2769      C2770   1.410       .  A
C2769      C2774   1.401       .  A
C2769      C2783   1.443       .  S
C2770      C2775   1.484       .  S
C2770      C2771   1.401   1_554  A
C2771      C2772   1.399       .  A
C2771      H2790   1.085   1_565  S
C2772      C2773   1.416       .  A
C2772      C2784   1.445   1_565  S
C2773      C2774   1.406   1_556  A
C2774      H2789   1.084       .  S
C2775      C2776   1.403       .  A
C2775      C2780   1.410   1_554  A
C2776      C2777   1.400       .  A
C2776      H2791   1.085   1_565  S
C2777      C2778   1.412       .  A
C2777      C2781   1.444   1_565  S
C2778      C2779   1.405       .  A
C2779      C2780   1.401   1_554  A
C2779      H2792   1.085   1_554  S
C2780      C2782   1.444       .  S
C2781      N2785   1.157       .  T
C2782      N2786   1.157       .  T
C2783      N2788   1.157       .  T
C2784      N2787   1.157       .  T
C2793      C2794   1.410       .  A
C2793      C2798   1.401       .  A
C2793      C2807   1.443       .  S
C2794      C2799   1.484       .  S
C2794      C2795   1.402       .  A
C2795      C2796   1.401       .  A
C2795      H2814   1.084       .  S
C2796      C2797   1.415       .  A
C2796      C2808   1.445       .  S
C2797      C2798   1.404       .  A
C2798      H2813   1.084       .  S
C2799      C2800   1.401       .  A
C2799      C2804   1.408       .  A
C2800      C2801   1.401       .  A
C2800      H2815   1.085       .  S
C2801      C2802   1.418       .  A
C2801      C2805   1.445       .  S
C2802      C2803   1.408       .  A
C2803      C2804   1.402       .  A
C2803      H2816   1.084       .  S
C2804      C2806   1.444       .  S
C2805      N2809   1.157       .  T
C2806      N2810   1.157       .  T
C2807      N2812   1.157       .  T
C2808      N2811   1.158       .  T
C2817      C2818   1.419       .  A
C2817      C2822   1.405       .  A
C2817      C2831   1.443       .  S
C2818      C2823   1.506       .  S
C2818      C2819   1.407       .  A
C2819      C2820   1.397       .  A
C2819      H2838   1.082       .  S
C2820      C2821   1.408       .  A
C2820      C2832   1.438       .  S
C2821      C2822   1.403       .  A
C2822      H2837   1.084       .  S
C2823      C2824   1.409       .  A
C2823      C2828   1.421       .  A
C2824      C2825   1.396       .  A
C2824      H2839   1.083       .  S
C2825      C2826   1.408       .  A
C2825      C2829   1.444       .  S
C2826      C2827   1.403       .  A
C2827      C2828   1.405       .  A
C2827      H2840   1.085       .  S
C2828      C2830   1.444       .  S
C2829      N2833   1.157       .  T
C2830      N2834   1.157       .  T
C2831      N2836   1.157       .  T
C2832      N2835   1.155       .  T
C2841      C2842   1.414       .  A
C2841      C2846   1.391       .  A
C2841      C2855   1.447       .  S
C2842      C2847   1.498       .  S
C2842      C2843   1.412       .  A
C2843      C2844   1.409       .  A
C2843      H2862   1.084       .  S
C2844      C2845   1.412       .  A
C2844      C2856   1.442       .  S
C2845      C2846   1.410       .  A
C2846      H2861   1.085       .  S
C2847      C2848   1.404       .  A
C2847      C2852   1.417       .  A
C2848      C2849   1.396       .  A
C2848      H2863   1.084       .  S
C2849      C2850   1.417       .  A
C2849      C2853   1.445       .  S
C2850      C2851   1.406       .  A
C2851      C2852   1.402       .  A
C2851      H2864   1.085       .  S
C2852      C2854   1.444       .  S
C2853      N2857   1.158       .  T
C2854      N2858   1.157   1_554  T
C2855      N2860   1.157       .  T
C2856      N2859   1.157   1_554  T
C2865      C2866   1.409       .  A
C2865      C2870   1.405       .  A
C2865      C2879   1.443       .  S
C2866      C2871   1.489       .  S
C2866      C2867   1.401   1_565  A
C2867      C2868   1.404       .  A
C2867      H2886   1.085       .  S
C2868      C2869   1.420   1_545  A
C2868      C2880   1.444       .  S
C2869      C2870   1.408       .  A
C2870      H2885   1.084       .  S
C2871      C2872   1.401   1_565  A
C2871      C2876   1.410       .  A
C2872      C2873   1.404       .  A
C2872      H2887   1.084       .  S
C2873      C2874   1.420   1_545  A
C2873      C2877   1.445       .  S
C2874      C2875   1.407       .  A
C2875      C2876   1.405       .  A
C2875      H2888   1.084       .  S
C2876      C2878   1.443       .  S
C2877      N2881   1.158       .  T
C2878      N2882   1.157       .  T
C2879      N2884   1.157       .  T
C2880      N2883   1.157       .  T
C2889      C2890   1.412       .  A
C2889      C2894   1.401       .  A
C2889      C2903   1.444       .  S
C2890      C2895   1.489       .  S
C2890      C2891   1.406       .  A
C2891      C2892   1.403       .  A
C2891      H2910   1.084       .  S
C2892      C2893   1.411       .  A
C2892      C2904   1.444       .  S
C2893      C2894   1.404       .  A
C2894      H2909   1.085       .  S
C2895      C2896   1.401       .  A
C2895      C2900   1.410       .  A
C2896      C2897   1.400       .  A
C2896      H2911   1.085       .  S
C2897      C2898   1.420       .  A
C2897      C2901   1.444       .  S
C2898      C2899   1.411       .  A
C2899      C2900   1.404       .  A
C2899      H2912   1.084       .  S
C2900      C2902   1.444       .  S
C2901      N2905   1.157       .  T
C2902      N2906   1.157       .  T
C2903      N2908   1.157       .  T
C2904      N2907   1.157       .  T
C2913      C2914   1.417       .  A
C2913      C2918   1.405       .  A
C2913      C2927   1.444       .  S
C2914      C2919   1.498       .  S
C2914      C2915   1.401       .  A
C2915      C2916   1.398       .  A
C2915      H2934   1.085       .  S
C2916      C2917   1.421       .  A
C2916      C2928   1.446       .  S
C2917      C2918   1.405       .  A
C2918      H2933   1.084       .  S
C2919      C2920   1.408       .  A
C2919      C2924   1.416       .  A
C2920      C2921   1.404       .  A
C2920      H2935   1.084       .  S
C2921      C2922   1.411       .  A
C2921      C2925   1.444       .  S
C2922      C2923   1.404       .  A
C2923      C2924   1.399       .  A
C2923      H2936   1.085       .  S
C2924      C2926   1.445       .  S
C2925      N2929   1.157       .  T
C2926      N2930   1.157       .  T
C2927      N2932   1.157       .  T
C2928      N2931   1.157       .  T
C2937      C2938   1.412       .  A
C2937      C2942   1.403       .  A
C2937      C2951   1.444       .  S
C2938      C2943   1.491       .  S
C2938      C2939   1.402       .  A
C2939      C2940   1.402       .  A
C2939      H2958   1.085       .  S
C2940      C2941   1.419       .  A
C2940      C2952   1.444       .  S
C2941      C2942   1.408       .  A
C2942      H2957   1.084       .  S
C2943      C2944   1.401       .  A
C2943      C2948   1.413   1_545  A
C2944      C2945   1.400       .  A
C2944      H2959   1.085       .  S
C2945      C2946   1.418       .  A
C2945      C2949   1.445       .  S
C2946      C2947   1.406   1_545  A
C2947      C2948   1.404       .  A
C2947      H2960   1.084       .  S
C2948      C2950   1.444       .  S
C2949      N2953   1.157       .  T
C2950      N2954   1.157       .  T
C2951      N2956   1.157   1_545  T
C2952      N2955   1.157       .  T
C2961      C2962   1.412   1_565  A
C2961      C2966   1.404       .  A
C2961      C2975   1.444       .  S
C2962      C2967   1.489       .  S
C2962      C2963   1.402       .  A
C2963      C2964   1.403       .  A
C2963      H2982   1.085       .  S
C2964      C2965   1.415       .  A
C2964      C2976   1.444       .  S
C2965      C2966   1.406   1_545  A
C2966      H2981   1.085       .  S
C2967      C2968   1.401       .  A
C2967      C2972   1.409       .  A
C2968      C2969   1.405       .  A
C2968      H2983   1.084       .  S
C2969      C2970   1.422       .  A
C2969      C2973   1.444       .  S
C2970      C2971   1.410       .  A
C2971      C2972   1.403       .  A
C2971      H2984   1.084       .  S
C2972      C2974   1.444       .  S
C2973      N2977   1.158       .  T
C2974      N2978   1.157       .  T
C2975      N2980   1.157       .  T
C2976      N2979   1.157       .  T
C2985      C2986   1.418       .  A
C2985      C2990   1.406       .  A
C2985      C2999   1.444       .  S
C2986      C2991   1.495       .  S
C2986      C2987   1.401       .  A
C2987      C2988   1.399       .  A
C2987      H3006   1.085       .  S
C2988      C2989   1.416       .  A
C2988      C3000   1.445       .  S
C2989      C2990   1.402       .  A
C2990      H3005   1.085       .  S
C2991      C2992   1.406       .  A
C2991      C2996   1.411       .  A
C2992      C2993   1.404       .  A
C2992      H3007   1.085       .  S
C2993      C2994   1.414       .  A
C2993      C2997   1.441       .  S
C2994      C2995   1.408       .  A
C2995      C2996   1.400       .  A
C2995      H3008   1.085       .  S
C2996      C2998   1.441       .  S
C2997      N3001   1.156       .  T
C2998      N3002   1.156       .  T
C2999      N3004   1.157       .  T
C3000      N3003   1.157       .  T
