geometry optimzed in LAMMPS
_audit_creation_date              2020-12-01 
_audit_creation_method            'lammps2cif' 
_symmetry_space_group_name_H-M    'P1' 
_symmetry_Int_Tables_number       1 
_symmetry_cell_setting            triclinic 
loop_ 
_symmetry_equiv_pos_as_xyz 
  x,y,z 
_cell_length_a                    26.91091704 
_cell_length_b                    26.764983215860216 
_cell_length_c                    37.27103107433298 
_cell_angle_alpha                 90.24452385588471 
_cell_angle_beta                  90.23332975306654 
_cell_angle_gamma                 89.40172069418186 
loop_ 
_atom_site_label 
_atom_site_type_symbol 
_atom_site_fract_x 
_atom_site_fract_y 
_atom_site_fract_z 
_atom_site_charge 
O1          O  0.85556780  0.16266242  0.90362384    -0.86300
O2          O  0.90194493  0.22783042  0.94827002    -0.83400
C3          C  0.93608506  0.24461063  0.96793064     0.97100
O4          O  0.98094372  0.23891159  0.95877018    -0.83400
O5          O  0.00103136  0.13753589  0.96294378    -0.86000
C6          C  0.00346338  0.09195422  0.95454718     1.01700
O7          O  0.99877939  0.07817147  0.92250736    -0.78800
O8          O  0.89938799  0.09650871  0.91941390    -0.79000
C9          C  0.86045997  0.12280864  0.92179161     1.01600
O10         O  0.91007268  0.20491669  0.84291768    -0.86300
O11         O  0.95408327  0.27374334  0.88856894    -0.83400
C12         C  0.00075479  0.27665824  0.88335937     0.97200
O13         O  0.02891781  0.24025816  0.89059934    -0.83400
O14         O  0.05820579  0.14347827  0.89772108    -0.86000
C15         C  0.05422584  0.12162806  0.86759633     1.01600
O16         O  0.01193257  0.11557401  0.85318037    -0.78800
O17         O  0.90751242  0.12347277  0.84604351    -0.79000
C18         C  0.90191879  0.16315684  0.82839896     1.01600
Cr19       Cr  0.90921593  0.21411016  0.89598645     1.93700
Cr20       Cr  0.01308178  0.18865690  0.92576510     1.93200
Cr21       Cr  0.95428763  0.10852462  0.88607299     1.39100
O22         O  0.95904064  0.17101086  0.90209417    -1.24100
O23         O  0.85841391  0.15917188  0.60636760    -0.86300
O24         O  0.79247705  0.11440247  0.56401128    -0.83400
C25         C  0.77382234  0.08203368  0.54390184     0.97100
O26         O  0.77806807  0.03614250  0.55170828    -0.83400
O27         O  0.87771521  0.01238510  0.54725898    -0.86000
C28         C  0.92337869  0.01046141  0.55449583     1.01700
O29         O  0.93841729  0.01427439  0.58636280    -0.78800
O30         O  0.92261795  0.11404519  0.58928020    -0.79000
C31         C  0.89720014  0.15357130  0.58720779     1.01600
O32         O  0.81617727  0.10553821  0.66787930    -0.86300
O33         O  0.74500955  0.06385119  0.62350327    -0.83400
C34         C  0.74033400  0.01702843  0.62820407     0.97200
O35         O  0.77577624  0.98766210  0.62066431    -0.83400
O36         O  0.87252764  0.95577652  0.61355059    -0.86000
C37         C  0.89587572  0.96063786  0.64315568     1.01600
O38         O  0.90192178  0.00347661  0.65682271    -0.78800
O39         O  0.89694335  0.10811517  0.66368845    -0.79000
C40         C  0.85779651  0.11447239  0.68177982     1.01600
Cr41       Cr  0.80598835  0.10681435  0.61530583     1.93700
Cr42       Cr  0.82752776  0.00190949  0.58508686     1.93200
Cr43       Cr  0.90993995  0.05999366  0.62334237     1.39100
O44         O  0.84721438  0.05592953  0.60840912    -1.24100
O45         O  0.10956586  0.93123021  0.08816169    -0.86300
O46         O  0.01033329  0.94391803  0.08116473    -0.83400
C47         C  0.00959828  0.92865242  0.04927663     0.97100
O48         O  0.01379709  0.88285442  0.04212729    -0.83400
O49         O  0.03500848  0.78241223  0.04931646    -0.86000
C50         C  0.08045340  0.77917155  0.04135121     1.01700
O51         O  0.11207734  0.79619297  0.06285960    -0.78800
O52         O  0.15445872  0.86574713  0.10420519    -0.79000
C53         C  0.14881623  0.90546802  0.08586230     1.01600
O54         O  0.09783943  0.90692716  0.16187278    -0.86300
O55         O  0.99373785  0.90937013  0.15107890    -0.83400
C56         C  0.95251307  0.90189220  0.13546299     0.97200
O57         O  0.95139376  0.87913957  0.10547980    -0.83400
O58         O  0.98313558  0.78394709  0.11631696    -0.86000
C59         C  0.01177042  0.74923599  0.12643417     1.01600
O60         O  0.05869589  0.75329110  0.12314331    -0.78800
O61         O  0.10174815  0.82584163  0.16669652    -0.79000
C62         C  0.10781635  0.86860563  0.18018784     1.01600
Cr63       Cr  0.05315209  0.91760600  0.11997277     1.93700
Cr64       Cr  0.99993947  0.83370955  0.08023907     1.93200
Cr65       Cr  0.10261206  0.81326173  0.11395674     1.39100
O66         O  0.05180016  0.85423041  0.10540399    -1.24100
O67         O  0.12129352  0.88097637  0.39557568    -0.86300
O68         O  0.08403048  0.95698492  0.43504219    -0.83400
C69         C  0.08172563  0.99698164  0.45265956     0.97100
O70         O  0.11117334  0.03226934  0.44590415    -0.83400
O71         O  0.20486194  0.99867040  0.46452289    -0.86000
C72         C  0.24414193  0.97260113  0.46417567     1.01700
O73         O  0.26004202  0.95435659  0.43506385    -0.78800
O74         O  0.19055604  0.88353885  0.42557531    -0.79000
C75         C  0.14729903  0.86703391  0.42213701     1.01600
O76         O  0.12948957  0.94951289  0.33554160    -0.86300
O77         O  0.08223319  0.02306484  0.37545156    -0.83400
C78         C  0.10294652  0.06493340  0.37112783     0.97200
O79         O  0.14827094  0.06999485  0.37951185    -0.83400
O80         O  0.24527824  0.04202946  0.39943985    -0.86000
C81         C  0.26963706  0.02115167  0.37416001     1.01600
O82         O  0.25640278  0.97934870  0.36151856    -0.78800
O83         O  0.19234131  0.89925529  0.34746116    -0.79000
C84         C  0.16109308  0.91758005  0.32539454     1.01600
Cr85       Cr  0.10885955  0.95402042  0.38590328     1.93700
Cr86       Cr  0.17721636  0.03142815  0.42057955     1.93200
Cr87       Cr  0.22058610  0.93174188  0.39242129     1.39100
O88         O  0.16911305  0.97324972  0.39892241    -1.24100
O89         O  0.34223866  0.87193611  0.90011449    -0.86300
O90         O  0.27976773  0.92527529  0.94147067    -0.83400
C91         C  0.26176150  0.95987497  0.96032618     0.97100
O92         O  0.26857658  0.00492589  0.95141030    -0.83400
O93         O  0.36862964  0.01911468  0.96344074    -0.86000
C94         C  0.41488798  0.01450196  0.95942046     1.01700
O95         O  0.43349912  0.00482616  0.92927037    -0.78800
O96         O  0.40860853  0.90814265  0.92171388    -0.79000
C97         C  0.38013506  0.87130186  0.92045236     1.01600
O98         O  0.31178315  0.93265118  0.83847327    -0.86300
O99         O  0.24144944  0.98060097  0.88060494    -0.83400
C100        C  0.24152391  0.02719479  0.87419056     0.97200
O101        O  0.27912258  0.05254848  0.88239807    -0.83400
O102        O  0.37724419  0.07482548  0.89811905    -0.86000
C103        C  0.40536274  0.06755150  0.87128534     1.01600
O104        O  0.40957783  0.02460876  0.85727840    -0.78800
O105        O  0.39184036  0.92262553  0.84641036    -0.79000
C106        C  0.35401699  0.92133984  0.82624914     1.01600
Cr107      Cr  0.29719375  0.93128190  0.89055489     1.93700
Cr108      Cr  0.32463054  0.03356495  0.92194085     1.93200
Cr109      Cr  0.40562595  0.96561158  0.88914182     1.39100
O110        O  0.34231038  0.97720218  0.90006742    -1.24100
O111        O  0.36026659  0.87264829  0.60144014    -0.86300
O112        O  0.40568095  0.80085475  0.56207455    -0.83400
C113        C  0.43911517  0.78003035  0.54380157     0.97100
O114        O  0.48361172  0.78127777  0.55512133    -0.83400
O115        O  0.51105673  0.88019300  0.54657911    -0.86000
C116        C  0.51289170  0.92663886  0.55242627     1.01700
O117        O  0.50723886  0.94371291  0.58365176    -0.78800
O118        O  0.40845986  0.93497538  0.58754306    -0.79000
C119        C  0.36796603  0.91254005  0.58399637     1.01600
O120        O  0.40850030  0.83116797  0.66608323    -0.86300
O121        O  0.45076954  0.75589877  0.62586664    -0.83400
C122        C  0.49639155  0.75027957  0.63431286     0.97200
O123        O  0.52776853  0.78294719  0.62582828    -0.83400
O124        O  0.56538774  0.87770499  0.61336624    -0.86000
C125        C  0.56140999  0.90554909  0.64093505     1.01600
O126        O  0.51922655  0.91292937  0.65501598    -0.78800
O127        O  0.41494268  0.91235078  0.66221960    -0.79000
C128        C  0.40446668  0.87392865  0.67997483     1.01600
Cr129      Cr  0.41057194  0.81820346  0.61368677     1.93700
Cr130      Cr  0.51774156  0.83215732  0.58703218     1.93200
Cr131      Cr  0.46207693  0.92043704  0.62148219     1.39100
O132        O  0.46353235  0.85655630  0.60790701    -1.24100
O133        O  0.62117528  0.15068442  0.11071325    -0.86300
O134        O  0.58341202  0.07717823  0.07032932    -0.83400
C135        C  0.57987815  0.03746796  0.05269870     0.97100
O136        O  0.60945046  0.00134773  0.05822985    -0.83400
O137        O  0.70396322  0.03619043  0.04108728    -0.86000
C138        C  0.74375174  0.06064234  0.04408509     1.01700
O139        O  0.75963421  0.07056040  0.07505750    -0.78800
O140        O  0.69330827  0.14587957  0.08499080    -0.79000
C141        C  0.65095021  0.16594891  0.08687093     1.01600
O142        O  0.62657095  0.07993738  0.17074751    -0.86300
O143        O  0.58100853  0.00862543  0.12910810    -0.83400
C144        C  0.60156752  0.96585811  0.13204832     0.97200
O145        O  0.64635475  0.95933052  0.12263927    -0.83400
O146        O  0.74324565  0.98475335  0.10435022    -0.86000
C147        C  0.76514841  0.99987812  0.13263110     1.01600
O148        O  0.75193573  0.04076848  0.14733243    -0.78800
O149        O  0.69198451  0.12604993  0.16179201    -0.79000
C150        C  0.65917768  0.10906320  0.18254450     1.01600
Cr151      Cr  0.60767107  0.07753202  0.11978121     1.93700
Cr152      Cr  0.67559597  0.99965300  0.08329974     1.93200
Cr153      Cr  0.72002734  0.09350835  0.11706724     1.39100
O154        O  0.66764583  0.05609678  0.10750556    -1.24100
O155        O  0.64421598  0.12525152  0.39700063    -0.86300
O156        O  0.57081981  0.09107267  0.43788210    -0.83400
C157        C  0.53135251  0.08905285  0.45527463     0.97100
O158        O  0.49626522  0.11983401  0.44969410    -0.83400
O159        O  0.53276972  0.21416003  0.46715331    -0.86000
C160        C  0.55916548  0.25278765  0.46526417     1.01700
O161        O  0.57392276  0.26822557  0.43507739    -0.78800
O162        O  0.64489798  0.19869613  0.42245379    -0.79000
C163        C  0.66132486  0.15451334  0.42074239     1.01600
O164        O  0.57373475  0.13299493  0.33786185    -0.86300
O165        O  0.50074538  0.09057153  0.37934801    -0.83400
C166        C  0.45983755  0.11413625  0.37564988     0.97200
O167        O  0.45716947  0.15957353  0.38472847    -0.83400
O168        O  0.48443814  0.25469647  0.40412805    -0.86000
C169        C  0.49958180  0.27503280  0.37553965     1.01600
O170        O  0.54057944  0.26158770  0.36171462    -0.78800
O171        O  0.62190311  0.19749478  0.34620251    -0.79000
C172        C  0.60579038  0.16261896  0.32630117     1.01600
Cr173      Cr  0.57097557  0.11484054  0.38858990     1.93700
Cr174      Cr  0.49704176  0.18655123  0.42475442     1.93200
Cr175      Cr  0.59251013  0.22756341  0.39154398     1.39100
O176        O  0.55313777  0.17637617  0.40122105    -1.24100
O177        O  0.65096882  0.37116814  0.90060834    -0.86300
O178        O  0.61115165  0.30137845  0.94374980    -0.83400
C179        C  0.57954751  0.28331225  0.96476124     0.97100
O180        O  0.53413223  0.28424858  0.95607661    -0.83400
O181        O  0.50603752  0.38332825  0.96125152    -0.86000
C182        C  0.50089449  0.42897171  0.95394963     1.01700
O183        O  0.50269197  0.44367100  0.92207904    -0.78800
O184        O  0.60316371  0.43332175  0.91844086    -0.79000
C185        C  0.64422434  0.41037965  0.91944830     1.01600
O186        O  0.59994205  0.32695928  0.83889950    -0.86300
O187        O  0.56246566  0.25257934  0.88343457    -0.83400
C188        C  0.51618123  0.24536127  0.87915842     0.97200
O189        O  0.48504392  0.27886141  0.88764893    -0.83400
O190        O  0.44812020  0.37347479  0.89587103    -0.86000
C191        C  0.45006860  0.39610960  0.86605198     1.01600
O192        O  0.49158464  0.40625935  0.85202824    -0.78800
O193        O  0.59582746  0.40799472  0.84425453    -0.79000
C194        C  0.60586409  0.36979292  0.82561578     1.01600
Cr195      Cr  0.60190797  0.31578035  0.89193630     1.93700
Cr196      Cr  0.49729447  0.33173791  0.92334621     1.93200
Cr197      Cr  0.54869896  0.41757433  0.88492287     1.39100
O198        O  0.54907238  0.35434477  0.89948987    -1.24100
O199        O  0.65715287  0.37592632  0.60420066    -0.86300
O200        O  0.71470012  0.42994740  0.56086713    -0.83400
C201        C  0.72951639  0.46479408  0.54135203     0.97100
O202        O  0.72255608  0.50983283  0.55074060    -0.83400
O203        O  0.62206969  0.52406818  0.54695794    -0.86000
C204        C  0.57670309  0.52049431  0.55398902     1.01700
O205        O  0.56224263  0.51222727  0.58533566    -0.78800
O206        O  0.58927048  0.41426270  0.58667712    -0.79000
C207        C  0.61803224  0.37695162  0.58499815     1.01600
O208        O  0.69476997  0.43384426  0.66570671    -0.86300
O209        O  0.76016163  0.48259213  0.61935909    -0.83400
C210        C  0.76096035  0.52946802  0.62477757     0.97200
O211        O  0.72179582  0.55528304  0.62110282    -0.83400
O212        O  0.62172191  0.57796056  0.61431136    -0.86000
C213        C  0.59763480  0.56960279  0.64292458     1.01600
O214        O  0.59569523  0.52607649  0.65588866    -0.78800
O215        O  0.61444292  0.42301176  0.66154721    -0.79000
C216        C  0.65409081  0.42166124  0.67978034     1.01600
Cr217      Cr  0.70333932  0.43421890  0.61265234     1.93700
Cr218      Cr  0.67096869  0.53770490  0.58515739     1.93200
Cr219      Cr  0.59546763  0.46935004  0.62158340     1.39100
O220        O  0.65708985  0.48094542  0.60710087    -1.24100
O221        O  0.41537402  0.61098346  0.42099497    -0.86300
O222        O  0.43136869  0.51027785  0.42431422    -0.83400
C223        C  0.41724963  0.50982492  0.45622145     0.97100
O224        O  0.37184595  0.51372136  0.46355406    -0.83400
O225        O  0.27192259  0.53531926  0.45788866    -0.86000
C226        C  0.26576071  0.58155751  0.46383396     1.01700
O227        O  0.28243376  0.61260413  0.44209951    -0.78800
O228        O  0.35152072  0.65577300  0.40239563    -0.79000
C229        C  0.39032600  0.65105092  0.42197964     1.01600
O230        O  0.39382629  0.60194021  0.34653173    -0.86300
O231        O  0.39673058  0.49700500  0.35457758    -0.83400
C232        C  0.39023343  0.45491203  0.36922066     0.97200
O233        O  0.36656330  0.45192978  0.39870533    -0.83400
O234        O  0.27004193  0.48201766  0.39110947    -0.86000
C235        C  0.23604127  0.51047746  0.37972334     1.01600
O236        O  0.24059962  0.55786574  0.38153500    -0.78800
O237        O  0.31363401  0.60083472  0.33903296    -0.79000
C238        C  0.35624342  0.61079429  0.32734121     1.01600
Cr239      Cr  0.40408931  0.55521347  0.38722085     1.93700
Cr240      Cr  0.32166572  0.49973481  0.42588852     1.93200
Cr241      Cr  0.29997739  0.60255704  0.39154117     1.39100
O242        O  0.34099506  0.55210568  0.40080236    -1.24100
O243        O  0.36766933  0.62067272  0.11379053    -0.86300
O244        O  0.44335233  0.58960477  0.07295786    -0.83400
C245        C  0.48108487  0.59085306  0.05348104     0.97100
O246        O  0.51280881  0.62495928  0.05747040    -0.83400
O247        O  0.46519894  0.71347812  0.03939309    -0.86000
C248        C  0.43467358  0.74954010  0.04073968     1.01700
O249        O  0.42073715  0.76621205  0.07090540    -0.78800
O250        O  0.35866827  0.69134423  0.08572965    -0.79000
C251        C  0.34889011  0.64572218  0.08829667     1.01600
O252        O  0.43750881  0.63827439  0.17206405    -0.86300
O253        O  0.51381584  0.59999243  0.13034964    -0.83400
C254        C  0.55280621  0.62633440  0.13166153     0.97200
O255        O  0.55129391  0.67091996  0.12069985    -0.83400
O256        O  0.51141545  0.76262215  0.10035973    -0.86000
C257        C  0.49337848  0.78412002  0.12789294     1.01600
O258        O  0.45580962  0.76659093  0.14363166    -0.78800
O259        O  0.38207488  0.69700505  0.16156253    -0.79000
C260        C  0.40247676  0.66596202  0.18267474     1.01600
Cr261      Cr  0.44153939  0.61687741  0.12158378     1.93700
Cr262      Cr  0.50600677  0.69227711  0.08145878     1.93200
Cr263      Cr  0.40750798  0.72656103  0.11542910     1.39100
O264        O  0.45235899  0.67865772  0.10677594    -1.24100
O265        O  0.19824907  0.64600233  0.92142855    -0.86300
O266        O  0.26783411  0.57316647  0.93055710    -0.83400
C267        C  0.25442429  0.56122546  0.96177210     0.97100
O268        O  0.21663261  0.53434035  0.96544268    -0.83400
O269        O  0.12204143  0.50077204  0.95367526    -0.86000
C270        C  0.09342943  0.53728138  0.96067334     1.01700
O271        O  0.09463963  0.57643001  0.94234049    -0.78800
O272        O  0.12569228  0.64695643  0.89608345    -0.79000
C273        C  0.15523752  0.66456544  0.91929163     1.01600
O274        O  0.19027694  0.62068343  0.84471141    -0.86300
O275        O  0.25392729  0.54005737  0.85842485    -0.83400
C276        C  0.26931262  0.49960874  0.87211623     0.97200
O277        O  0.25009913  0.48322440  0.90079921    -0.83400
O278        O  0.15188774  0.45681421  0.88746168    -0.86000
C279        C  0.10571995  0.46201890  0.88176171     1.01600
O280        O  0.08524562  0.50429974  0.88628062    -0.78800
O281        O  0.12578840  0.57177974  0.83994966    -0.79000
C282        C  0.15616343  0.60107595  0.82583708     1.01600
Cr283      Cr  0.22380934  0.59261259  0.88927438     1.93700
Cr284      Cr  0.18485652  0.49781638  0.92504939     1.93200
Cr285      Cr  0.11238193  0.57345164  0.89156610     1.39100
O286        O  0.17375864  0.55387021  0.90137221    -1.24100
O287        O  0.14633250  0.69983123  0.58969935    -0.86300
O288        O  0.08203720  0.77617933  0.57795140    -0.83400
C289        C  0.06798550  0.76452838  0.54649561     0.97100
O290        O  0.03910238  0.72819897  0.54219757    -0.83400
O291        O  0.99425303  0.63725680  0.55345918    -0.86000
C292        C  0.02723498  0.60448870  0.54700235     1.01700
O293        O  0.06579243  0.60267184  0.56579859    -0.78800
O294        O  0.13785452  0.62563276  0.61211341    -0.79000
C295        C  0.15857258  0.65427788  0.58988878     1.01600
O296        O  0.11832409  0.69429617  0.66474567    -0.86300
O297        O  0.04429683  0.76645442  0.65007776    -0.83400
C298        C  0.00499498  0.78387850  0.63588178     0.97200
O299        O  0.99045958  0.76820448  0.60547562    -0.83400
O300        O  0.95478985  0.67497482  0.61910368    -0.86000
C301        C  0.95191010  0.62852655  0.62341420     1.01600
O302        O  0.99088954  0.60151060  0.62082973    -0.78800
O303        O  0.06423236  0.63386251  0.66845208    -0.79000
C304        C  0.09778343  0.65995354  0.68262019     1.01600
Cr305      Cr  0.09483357  0.73076575  0.62016531     1.93700
Cr306      Cr  0.99869218  0.70126961  0.58181079     1.93200
Cr307      Cr  0.06368515  0.62066829  0.61654860     1.39100
O308        O  0.05196109  0.68434173  0.60673084    -1.24100
O309        O  0.86459062  0.41085775  0.39869789    -0.86300
O310        O  0.94291034  0.43759434  0.43941485    -0.83400
C311        C  0.98363363  0.43633036  0.45584234     0.97100
O312        O  0.01556504  0.40258197  0.44883197    -0.83400
O313        O  0.97696667  0.30829132  0.46452781    -0.86000
C314        C  0.94588427  0.27313912  0.46310357     1.01700
O315        O  0.92523630  0.26207460  0.43369959    -0.78800
O316        O  0.86061534  0.33956116  0.42578337    -0.79000
C317        C  0.84799679  0.38492192  0.42410348     1.01600
O318        O  0.93190456  0.39896234  0.33885324    -0.86300
O319        O  0.00787362  0.43615671  0.38023717    -0.83400
C320        C  0.04771018  0.41208312  0.37481789     0.97200
O321        O  0.04927509  0.36567353  0.38128846    -0.83400
O322        O  0.01597648  0.26998578  0.39860597    -0.86000
C323        C  0.99357807  0.24843223  0.37296943     1.01600
O324        O  0.95314936  0.26610998  0.36045269    -0.78800
O325        O  0.87827138  0.33928755  0.34751735    -0.79000
C326        C  0.89714125  0.37221933  0.32736018     1.01600
Cr327      Cr  0.93789635  0.41566898  0.38974918     1.93700
Cr328      Cr  0.00987972  0.33757263  0.42160903     1.93200
Cr329      Cr  0.90738098  0.30570450  0.39200825     1.39100
O330        O  0.95234972  0.35260703  0.40068529    -1.24100
O331        O  0.89846630  0.38433819  0.11294305    -0.86300
O332        O  0.92933374  0.46032950  0.07117373    -0.83400
C333        C  0.92902290  0.49973382  0.05304335     0.97100
O334        O  0.89641004  0.53318203  0.05821275    -0.83400
O335        O  0.80534359  0.49490557  0.03872301    -0.86000
C336        C  0.77012092  0.46416236  0.03870666     1.01700
O337        O  0.75550341  0.44494252  0.06770455    -0.78800
O338        O  0.82815609  0.37796685  0.08433880    -0.79000
C339        C  0.87244454  0.36381955  0.08897766     1.01600
O340        O  0.88199219  0.45559601  0.17021378    -0.86300
O341        O  0.92404618  0.52817756  0.12910639    -0.83400
C342        C  0.90075948  0.56911669  0.13216607     0.97200
O343        O  0.85563203  0.57200951  0.12266273    -0.83400
O344        O  0.76168264  0.54005237  0.10138015    -0.86000
C345        C  0.73853545  0.52097559  0.12737253     1.01600
O346        O  0.75290067  0.47983683  0.14070494    -0.78800
O347        O  0.82034764  0.40440801  0.16024198    -0.79000
C348        C  0.85054567  0.42515578  0.18167542     1.01600
Cr349      Cr  0.90320899  0.45821408  0.11999750     1.93700
Cr350      Cr  0.83033590  0.53023189  0.08222184     1.93200
Cr351      Cr  0.79321495  0.43005163  0.11299523     1.39100
O352        O  0.84198859  0.47324809  0.10534393    -1.24100
C353        C  0.85166170  0.41237262  0.22027726    -0.07100
C354        C  0.84830444  0.36214776  0.23092353    -0.18200
C355        C  0.86104601  0.34741892  0.26602565     0.10100
C356        C  0.87701095  0.38375396  0.29112206    -0.07000
C357        C  0.87614879  0.43428778  0.28098166    -0.18300
C358        C  0.86309355  0.44896009  0.24633289     0.10100
S359        S  0.85988073  0.28172252  0.27610493    -0.33200
S360        S  0.86206600  0.51516074  0.23705430    -0.33200
H361        H  0.82414702  0.51296640  0.21098788     0.28100
H362        H  0.90557656  0.28144922  0.29452257     0.28100
H363        H  0.83912229  0.33379779  0.21120910     0.18700
H364        H  0.88631125  0.46290363  0.30025746     0.18700
C365        C  0.01860700  0.56388398  0.52092938    -0.07100
C366        C  0.04443557  0.51841599  0.52621478    -0.18200
C367        C  0.03278587  0.47559845  0.50663331     0.10100
C368        C  0.99516083  0.47812268  0.48026332    -0.07000
C369        C  0.97012871  0.52388953  0.47443152    -0.18300
C370        C  0.98179081  0.56669013  0.49399027     0.10100
S371        S  0.06551711  0.41873477  0.51812908    -0.33200
S372        S  0.94961645  0.62375432  0.48214878    -0.33200
H373        H  0.99182194  0.65398912  0.48596623     0.28100
H374        H  0.02295442  0.38867328  0.51631777     0.28100
H375        H  0.07249172  0.51528341  0.54705087     0.18700
H376        H  0.94214239  0.52702082  0.45354700     0.18700
C377        C  0.97018442  0.50890558  0.02839479    -0.07100
C378        C  0.01759776  0.49103701  0.03819222    -0.18200
C379        C  0.05936142  0.50252575  0.01799859     0.10100
C380        C  0.05358770  0.53163885  0.98686281    -0.07000
C381        C  0.00642497  0.55044457  0.97749590    -0.18300
C382        C  0.96463072  0.53878332  0.99753225     0.10100
S383        S  0.11902761  0.48085534  0.03411498    -0.33200
S384        S  0.90520894  0.56036073  0.98088791    -0.33200
H385        H  0.88013385  0.51620303  0.98960375     0.28100
H386        H  0.14524601  0.52262191  0.02187789     0.28100
H387        H  0.02247805  0.46929065  0.06244509     0.18700
H388        H  0.00153119  0.57198788  0.95314140     0.18700
C389        C  0.14863464  0.61483228  0.78777032    -0.07100
C390        C  0.15178503  0.66523938  0.77776617    -0.18200
C391        C  0.13499188  0.68154022  0.74400489     0.10100
C392        C  0.11567553  0.64654691  0.71914346    -0.07000
C393        C  0.11477053  0.59584293  0.72878637    -0.18300
C394        C  0.13137398  0.57963367  0.76236524     0.10100
S395        S  0.13557758  0.74773344  0.73556288    -0.33200
S396        S  0.13018509  0.51327523  0.77087539    -0.33200
H397        H  0.17213465  0.51268092  0.79354907     0.28100
H398        H  0.08864649  0.74884958  0.71880299     0.28100
H399        H  0.16441214  0.69262573  0.79717285     0.18700
H400        H  0.10156097  0.56822379  0.70975220     0.18700
C401        C  0.60147930  0.60205424  0.14168307    -0.07100
C402        C  0.60276999  0.54976898  0.14644244    -0.18200
C403        C  0.64751425  0.52240220  0.14570285     0.10100
C404        C  0.69273057  0.54734936  0.13994831    -0.07000
C405        C  0.69215145  0.59988441  0.13947392    -0.18300
C406        C  0.64744223  0.62757943  0.14081324     0.10100
S407        S  0.64363245  0.45538456  0.14752418    -0.33200
S408        S  0.65041827  0.69510076  0.14013164    -0.33200
H409        H  0.70250210  0.69905951  0.14030308     0.28100
H410        H  0.67899693  0.45122312  0.17528429     0.28100
H411        H  0.56836918  0.52927018  0.14814429     0.18700
H412        H  0.72697264  0.61920886  0.13613787     0.18700
C413        C  0.28210520  0.57970034  0.99401652    -0.07100
C414        C  0.26803600  0.56296559  0.02841129    -0.18200
C415        C  0.28903883  0.58301783  0.05999140     0.10100
C416        C  0.32398980  0.62151379  0.05731843    -0.07000
C417        C  0.33912783  0.63705384  0.02318559    -0.18300
C418        C  0.31953313  0.61653850  0.99170244     0.10100
S419        S  0.26932903  0.56109888  0.10330259    -0.33200
S420        S  0.34391356  0.63850520  0.94940394    -0.33200
H421        H  0.37052464  0.67956257  0.96284421     0.28100
H422        H  0.23768159  0.52339343  0.09058319     0.28100
H423        H  0.23991168  0.53457670  0.03063192     0.18700
H424        H  0.36772872  0.66502103  0.02118442     0.18700
C425        C  0.19200326  0.63498335  0.56074163    -0.07100
C426        C  0.19970311  0.66695113  0.53145147    -0.18200
C427        C  0.22143966  0.65036613  0.49944691     0.10100
C428        C  0.23930925  0.60034152  0.49661663    -0.07000
C429        C  0.23271767  0.56837825  0.52611236    -0.18300
C430        C  0.20934221  0.58489927  0.55784263     0.10100
S431        S  0.22151123  0.69329219  0.46188388    -0.33200
S432        S  0.20294942  0.54000678  0.59331281    -0.33200
H433        H  0.21605776  0.57389512  0.62064195     0.28100
H434        H  0.19797318  0.73429361  0.47865385     0.28100
H435        H  0.18590459  0.70501102  0.53271799     0.18700
H436        H  0.24611006  0.53011708  0.52458987     0.18700
C437        C  0.09413586  0.43970531  0.36549528    -0.07100
C438        C  0.13818521  0.41222915  0.35983525    -0.18200
C439        C  0.18477107  0.43527477  0.35983566     0.10100
C440        C  0.18848663  0.48715773  0.36759867    -0.07000
C441        C  0.14437092  0.51540448  0.36942942    -0.18300
C442        C  0.09761199  0.49276014  0.36755441     0.10100
S443        S  0.23784501  0.39572911  0.35032544    -0.33200
S444        S  0.04454569  0.53428922  0.36996458    -0.33200
H445        H  0.01968576  0.51095395  0.34122163     0.28100
H446        H  0.26446407  0.43309158  0.33244380     0.28100
H447        H  0.13665028  0.37203129  0.35652627     0.18700
H448        H  0.14610765  0.55533193  0.37413122     0.18700
C449        C  0.36351052  0.63287266  0.29125013    -0.07100
C450        C  0.33047578  0.62090925  0.26331349    -0.18200
C451        C  0.34030882  0.63476535  0.22778876     0.10100
C452        C  0.38464160  0.66022978  0.21973947    -0.07000
C453        C  0.41629269  0.67435466  0.24773205    -0.18300
C454        C  0.40559995  0.66237014  0.28331788     0.10100
S455        S  0.29731959  0.61478238  0.19359960    -0.33200
S456        S  0.44714988  0.68645235  0.31718974    -0.33200
H457        H  0.40934523  0.69650652  0.34226663     0.28100
H458        H  0.29980654  0.65878718  0.17334572     0.28100
H459        H  0.29788311  0.59885206  0.26888691     0.18700
H460        H  0.45000439  0.69447253  0.24174371     0.18700
C461        C  0.53948766  0.52257814  0.52600886    -0.07100
C462        C  0.53682941  0.48128796  0.50304488    -0.18200
C463        C  0.49501363  0.47387304  0.48177362     0.10100
C464        C  0.45524297  0.50857357  0.48372720    -0.07000
C465        C  0.45821513  0.55018741  0.50642229    -0.18300
C466        C  0.50046230  0.55802404  0.52719117     0.10100
S467        S  0.49436213  0.41929667  0.45308395    -0.33200
S468        S  0.50340112  0.61494202  0.55314692    -0.33200
H469        H  0.55543088  0.61597919  0.55644595     0.28100
H470        H  0.44238474  0.41461335  0.45181008     0.28100
H471        H  0.56645913  0.45348421  0.50294599     0.18700
H472        H  0.42882746  0.57824333  0.50630591     0.18700
C473        C  0.76023729  0.45031663  0.51002778    -0.07100
C474        C  0.79776976  0.41540236  0.51707023    -0.18200
C475        C  0.82720339  0.39540766  0.49002299     0.10100
C476        C  0.81820654  0.40819862  0.45365622    -0.07000
C477        C  0.78181360  0.44518043  0.44642377    -0.18300
C478        C  0.75260021  0.46624841  0.47423874     0.10100
S479        S  0.87804031  0.35731818  0.50548854    -0.33200
S480        S  0.70540757  0.51140446  0.46230756    -0.33200
H481        H  0.67089268  0.49561677  0.48793670     0.28100
H482        H  0.91107841  0.37343000  0.47947666     0.28100
H483        H  0.80499760  0.40405537  0.54454318     0.18700
H484        H  0.77521637  0.45675306  0.41898287     0.18700
C485        C  0.80893999  0.55594396  0.63018303    -0.07100
C486        C  0.81349420  0.60259536  0.61349942    -0.18200
C487        C  0.85918650  0.62680848  0.61102206     0.10100
C488        C  0.90203438  0.60540598  0.62741696    -0.07000
C489        C  0.89743666  0.55922525  0.64495137    -0.18300
C490        C  0.85162797  0.53435533  0.64647168     0.10100
S491        S  0.86250248  0.68104845  0.58223045    -0.33200
S492        S  0.85027092  0.47539962  0.66953011    -0.33200
H493        H  0.80155759  0.48161156  0.68235373     0.28100
H494        H  0.81112135  0.69062268  0.57962696     0.28100
H495        H  0.78161618  0.61851952  0.59972040     0.18700
H496        H  0.92989858  0.54205148  0.65723147     0.18700
C497        C  0.49406287  0.46647518  0.98183088    -0.07100
C498        C  0.53681668  0.48490140  0.99854161    -0.18200
C499        C  0.53434962  0.52656458  0.02110607     0.10100
C500        C  0.48792836  0.55033212  0.02713796    -0.07000
C501        C  0.44530557  0.53201695  0.00980911    -0.18300
C502        C  0.44795806  0.49075759  0.98692839     0.10100
S503        S  0.59136547  0.54637373  0.04189072    -0.33200
S504        S  0.39171533  0.47214714  0.96412004    -0.33200
H505        H  0.40520990  0.42174382  0.95911961     0.28100
H506        H  0.56992598  0.55023527  0.07600008     0.28100
H507        H  0.57256885  0.46725276  0.99338915     0.18700
H508        H  0.40957911  0.55009860  0.01406771     0.18700
C509        C  0.62554277  0.37755706  0.78860326    -0.07100
C510        C  0.64848616  0.42354938  0.78126165    -0.18200
C511        C  0.66166904  0.43726268  0.74638144     0.10100
C512        C  0.65141087  0.40479984  0.71749030    -0.07000
C513        C  0.63030890  0.35809755  0.72468649    -0.18300
C514        C  0.61819307  0.34375502  0.75978448     0.10100
S515        S  0.68574609  0.49913142  0.73994261    -0.33200
S516        S  0.58959174  0.28386788  0.76538505    -0.33200
H517        H  0.62578746  0.26722023  0.79005920     0.28100
H518        H  0.72483422  0.48325292  0.71770661     0.28100
H519        H  0.65493625  0.45002778  0.80281893     0.18700
H520        H  0.62183912  0.33311429  0.70257646     0.18700
C521        C  0.68290566  0.42676040  0.94535986    -0.07100
C522        C  0.70933283  0.38951927  0.96392006    -0.18200
C523        C  0.73956932  0.40113517  0.99325715     0.10100
C524        C  0.74421587  0.45121666  0.00477622    -0.07000
C525        C  0.72016595  0.48900543  0.98507367    -0.18300
C526        C  0.68924900  0.47734655  0.95564328     0.10100
S527        S  0.77162058  0.35024480  0.01476538    -0.33200
S528        S  0.65818371  0.52721341  0.93158764    -0.33200
H529        H  0.67733722  0.56696165  0.95201664     0.28100
H530        H  0.81698760  0.37589001  0.01560243     0.28100
H531        H  0.70488340  0.35061996  0.95648099     0.18700
H532        H  0.72399388  0.52743920  0.99374117     0.18700
C533        C  0.40314184  0.41787866  0.85208793    -0.07100
C534        C  0.40184535  0.46943119  0.84537177    -0.18200
C535        C  0.35724834  0.49684937  0.84769277     0.10100
C536        C  0.31282911  0.47227437  0.85710445    -0.07000
C537        C  0.31338970  0.41989823  0.85933078    -0.18300
C538        C  0.35778685  0.39252979  0.85641274     0.10100
S539        S  0.36112640  0.56374234  0.84424118    -0.33200
S540        S  0.35500546  0.32563007  0.86142263    -0.33200
H541        H  0.39967173  0.31592181  0.84309526     0.28100
H542        H  0.32296212  0.56697658  0.81841994     0.28100
H543        H  0.43636825  0.48941013  0.84218749     0.18700
H544        H  0.27946300  0.40037356  0.86566852     0.18700
C545        C  0.57346044  0.28054709  0.49820736    -0.07100
C546        C  0.62399554  0.29001272  0.50421488    -0.18200
C547        C  0.64038440  0.31544609  0.53495542     0.10100
C548        C  0.60525783  0.33615061  0.55920545    -0.07000
C549        C  0.55461121  0.32580210  0.55339626    -0.18300
C550        C  0.53849984  0.29790807  0.52361592     0.10100
S551        S  0.70646516  0.32128771  0.54054436    -0.33200
S552        S  0.47258620  0.28920576  0.51812176    -0.33200
H553        H  0.47236432  0.29411962  0.48056435     0.28100
H554        H  0.70599437  0.30582821  0.57654879     0.28100
H555        H  0.65119727  0.27705321  0.48487593     0.18700
H556        H  0.52700976  0.34150280  0.57141958     0.18700
C557        C  0.47013771  0.31778416  0.36093404    -0.07100
C558        C  0.49430491  0.36227743  0.35209953    -0.18200
C559        C  0.46767277  0.40761733  0.34910732     0.10100
C560        C  0.41590509  0.40891420  0.35614116    -0.07000
C561        C  0.39134305  0.36347203  0.36068854    -0.18300
C562        C  0.41763562  0.31822446  0.36240813     0.10100
S563        S  0.50281111  0.46322378  0.34100715    -0.33200
S564        S  0.38223489  0.26229546  0.36796879    -0.33200
H565        H  0.41530308  0.23305114  0.34738162     0.28100
H566        H  0.46968984  0.48112110  0.31461175     0.28100
H567        H  0.53447877  0.36256824  0.35027741     0.18700
H568        H  0.35158889  0.36352524  0.36525676     0.18700
C569        C  0.51457956  0.83261344  0.13878266    -0.07100
C570        C  0.56171810  0.83346089  0.15496744    -0.18200
C571        C  0.58896693  0.87789458  0.15726754     0.10100
C572        C  0.57017607  0.92202911  0.14109004    -0.07000
C573        C  0.52124530  0.92174457  0.12763048    -0.18300
C574        C  0.49329768  0.87791408  0.12660251     0.10100
S575        S  0.64648888  0.87588222  0.18194324    -0.33200
S576        S  0.43287052  0.88114545  0.10565015    -0.33200
H577        H  0.41068449  0.84611062  0.12830691     0.28100
H578        H  0.64691058  0.92713717  0.19036407     0.28100
H579        H  0.57799165  0.79900201  0.16498312     0.18700
H580        H  0.50559443  0.95519596  0.11558928     0.18700
C581        C  0.65694110  0.12408088  0.22062092    -0.07100
C582        C  0.65097435  0.17483218  0.22967987    -0.18200
C583        C  0.63574938  0.18934971  0.26429453     0.10100
C584        C  0.62694821  0.15231659  0.29039997    -0.07000
C585        C  0.63686116  0.10205294  0.28180825    -0.18300
C586        C  0.65213736  0.08769514  0.24756250     0.10100
S587        S  0.62427171  0.25483559  0.27245231    -0.33200
S588        S  0.66400674  0.02207501  0.23965364    -0.33200
H589        H  0.69900157  0.02885977  0.21223036     0.28100
H590        H  0.58093251  0.24772222  0.29265650     0.28100
H591        H  0.65459572  0.20297689  0.20906277     0.18700
H592        H  0.63196614  0.07340045  0.30193235     0.18700
C593        C  0.63510646  0.20374657  0.05901748    -0.07100
C594        C  0.58549668  0.22124640  0.05810227    -0.18200
C595        C  0.56661125  0.24918479  0.02890789     0.10100
C596        C  0.59715512  0.25877055  0.99875814    -0.07000
C597        C  0.64708439  0.24351197  0.00060083    -0.18300
C598        C  0.66639402  0.21746838  0.03003327     0.10100
S599        S  0.50346666  0.27155911  0.03207916    -0.33200
S600        S  0.73174332  0.20346339  0.02802420    -0.33200
H601        H  0.73861628  0.21817534  0.06382068     0.28100
H602        H  0.51442740  0.31930245  0.01881507     0.28100
H603        H  0.56070039  0.21219505  0.07989700     0.18700
H604        H  0.67179484  0.25145182  0.97850003     0.18700
C605        C  0.42618924  0.75241569  0.50961021    -0.07100
C606        C  0.46422790  0.72675966  0.49101630    -0.18200
C607        C  0.45429311  0.69663461  0.46071608     0.10100
C608        C  0.40477129  0.69077613  0.44845407    -0.07000
C609        C  0.36715097  0.71855495  0.46557424    -0.18300
C610        C  0.37704915  0.74941136  0.49536073     0.10100
S611        S  0.50554348  0.66664740  0.43758964    -0.33200
S612        S  0.32450674  0.78286555  0.51382113    -0.33200
H613        H  0.34827365  0.82945372  0.51271922     0.28100
H614        H  0.54395104  0.68612026  0.45900497     0.28100
H615        H  0.50207730  0.72954060  0.50064637     0.18700
H616        H  0.32914731  0.71499113  0.45638959     0.18700
C617        C  0.56542627  0.61031292  0.65661504    -0.07100
C618        C  0.58766461  0.65410531  0.66889020    -0.18200
C619        C  0.56173385  0.69965666  0.66803317     0.10100
C620        C  0.51480340  0.70276333  0.65084060    -0.07000
C621        C  0.48984552  0.65794466  0.64363843    -0.18300
C622        C  0.51438387  0.61151295  0.64750656     0.10100
S623        S  0.59037712  0.75209926  0.68949747    -0.33200
S624        S  0.48187636  0.55443347  0.63740508    -0.33200
H625        H  0.43548247  0.57671893  0.62976533     0.28100
H626        H  0.54608638  0.77947730  0.69448237     0.28100
H627        H  0.62609920  0.65320155  0.67769439     0.18700
H628        H  0.45276718  0.65933144  0.63230247     0.18700
C629        C  0.52214872  0.96333859  0.52423541    -0.07100
C630        C  0.55110020  0.00471829  0.53405061    -0.18200
C631        C  0.55292230  0.04706506  0.51266570     0.10100
C632        C  0.52581727  0.04813431  0.48044417    -0.07000
C633        C  0.49896415  0.00605362  0.46942357    -0.18300
C634        C  0.49662001  0.96353794  0.49105310     0.10100
S635        S  0.58995658  0.09872443  0.52807648    -0.33200
S636        S  0.46020865  0.91176192  0.47492466    -0.33200
H637        H  0.43837500  0.90018139  0.50797134     0.28100
H638        H  0.56137992  0.13665400  0.51185286     0.28100
H639        H  0.57105963  0.00482149  0.55938937     0.18700
H640        H  0.47975656  0.00638571  0.44380829     0.18700
C641        C  0.39001851  0.82942105  0.94531290    -0.07100
C642        C  0.35528282  0.82103506  0.97252271    -0.18200
C643        C  0.36824533  0.79407781  0.00353962     0.10100
C644        C  0.41697317  0.77397965  0.00714828    -0.07000
C645        C  0.45020304  0.77886228  0.97842482    -0.18300
C646        C  0.43740979  0.80659353  0.94785080     0.10100
S647        S  0.32229213  0.78646789  0.03830342    -0.33200
S648        S  0.48375843  0.81326909  0.91346974    -0.33200
H649        H  0.45000630  0.82220401  0.88523333     0.28100
H650        H  0.28384204  0.81416785  0.02186961     0.28100
H651        H  0.31904667  0.83875430  0.97062686     0.18700
H652        H  0.48728355  0.76293136  0.98047066     0.18700
C653        C  0.44942784  0.02297567  0.98872514    -0.07100
C654        C  0.47703743  0.06690346  0.98709604    -0.18200
C655        C  0.52134829  0.07149396  0.00612744     0.10100
C656        C  0.53768394  0.03190443  0.02821257    -0.07000
C657        C  0.50959705  0.98811437  0.03024166    -0.18300
C658        C  0.46562480  0.98319230  0.01061354     0.10100
S659        S  0.55731991  0.12681454  0.99855471    -0.33200
S660        S  0.43388882  0.92420489  0.01256881    -0.33200
H661        H  0.38639528  0.94283951  0.00382522     0.28100
H662        H  0.60410224  0.10370493  0.00312411     0.28100
H663        H  0.46589824  0.09634821  0.96873306     0.18700
H664        H  0.52175489  0.95773760  0.04741183     0.18700
C665        C  0.36059816  0.90495527  0.78855216    -0.07100
C666        C  0.39745002  0.86870952  0.78136424    -0.18200
C667        C  0.41044853  0.85580655  0.74623877     0.10100
C668        C  0.38690258  0.88017524  0.71721649    -0.07000
C669        C  0.34935740  0.91571424  0.72424268    -0.18300
C670        C  0.33546771  0.92781270  0.75945270     0.10100
S671        S  0.46136253  0.81248629  0.74025808    -0.33200
S672        S  0.28929538  0.97624759  0.76548553    -0.33200
H673        H  0.25699364  0.94506256  0.78449337     0.28100
H674        H  0.43383735  0.77955529  0.71866102     0.28100
H675        H  0.41727494  0.85106183  0.80337886     0.18700
H676        H  0.33143976  0.93499293  0.70209657     0.18700
C677        C  0.49636260  0.19639324  0.86658325    -0.07100
C678        C  0.44993934  0.19647476  0.84895372    -0.18200
C679        C  0.42137372  0.15297227  0.84624699     0.10100
C680        C  0.43932535  0.10823321  0.86126228    -0.07000
C681        C  0.48783525  0.10666749  0.87530014    -0.18300
C682        C  0.51677780  0.14993069  0.87767965     0.10100
S683        S  0.36116159  0.15496326  0.82498997    -0.33200
S684        S  0.57666244  0.14418248  0.89904712    -0.33200
H685        H  0.60148561  0.16895401  0.87125014     0.28100
H686        H  0.36031426  0.20652272  0.81780732     0.28100
H687        H  0.43468317  0.23143480  0.83921202     0.18700
H688        H  0.50188609  0.07228472  0.88702037     0.18700
C689        C  0.08564378  0.79288563  0.51449585    -0.07100
C690        C  0.07961870  0.77173007  0.47991431    -0.18200
C691        C  0.09866037  0.79487797  0.44899288     0.10100
C692        C  0.12547443  0.83943557  0.45260229    -0.07000
C693        C  0.13079609  0.86089380  0.48678516    -0.18300
C694        C  0.11048435  0.83918086  0.51736865     0.10100
S695        S  0.09075529  0.76632632  0.40544307    -0.33200
S696        S  0.11594959  0.87425309  0.55858218    -0.33200
H697        H  0.06594270  0.86785119  0.56828094     0.28100
H698        H  0.06180569  0.72598839  0.41689900     0.28100
H699        H  0.06067306  0.73645724  0.47710276     0.18700
H700        H  0.14930025  0.89644648  0.48942613     0.18700
C701        C  0.07118926  0.10935808  0.36174214    -0.07100
C702        C  0.02220046  0.11063474  0.37482670    -0.18200
C703        C  0.99349258  0.15461813  0.37459073     0.10100
C704        C  0.01379227  0.19925900  0.36119929    -0.07000
C705        C  0.06097840  0.19717472  0.34520592    -0.18300
C706        C  0.08932959  0.15248133  0.34460308     0.10100
S707        S  0.93377016  0.15274590  0.39622872    -0.33200
S708        S  0.14783638  0.15069522  0.32136926    -0.33200
H709        H  0.14740310  0.20083548  0.31021022     0.28100
H710        H  0.91020551  0.18541696  0.37199754     0.28100
H711        H  0.00711593  0.07793828  0.38773585     0.18700
H712        H  0.07655572  0.23126847  0.33475914     0.18700
C713        C  0.33206995  0.93262350  0.55678831    -0.07100
C714        C  0.35199749  0.96186314  0.52901851    -0.18200
C715        C  0.32362860  0.97695474  0.49950720     0.10100
C716        C  0.27314476  0.96394134  0.49740743    -0.07000
C717        C  0.25198791  0.93735060  0.52590091    -0.18300
C718        C  0.28081284  0.92132947  0.55539238     0.10100
S719        S  0.35457074  0.01183376  0.46492391    -0.33200
S720        S  0.25000839  0.88684309  0.59002380    -0.33200
H721        H  0.27581638  0.90999913  0.61837154     0.28100
H722        H  0.31288775  0.04097916  0.45533804     0.28100
H723        H  0.39086703  0.97194505  0.52946563     0.18700
H724        H  0.21312819  0.92763144  0.52471635     0.18700
C725        C  0.31721742  0.04395838  0.36284473    -0.07100
C726        C  0.36044036  0.01404987  0.36141892    -0.18200
C727        C  0.40822140  0.03544285  0.36190148     0.10100
C728        C  0.41286469  0.08818052  0.36469361    -0.07000
C729        C  0.36929479  0.11742959  0.36171273    -0.18300
C730        C  0.32219192  0.09612960  0.36047571     0.10100
S731        S  0.46193266  0.99441034  0.36082270    -0.33200
S732        S  0.26950628  0.13767666  0.35682993    -0.33200
H733        H  0.23997000  0.10246639  0.33881783     0.28100
H734        H  0.43643728  0.95056999  0.35150729     0.28100
H735        H  0.35685008  0.97384400  0.36270513     0.18700
H736        H  0.37143183  0.15762048  0.36198312     0.18700
C737        C  0.09816561  0.75437288  0.00735817    -0.07100
C738        C  0.14974033  0.74732772  0.00278784    -0.18200
C739        C  0.16966009  0.72320125  0.97260707     0.10100
C740        C  0.13761684  0.70213756  0.94645927    -0.07000
C741        C  0.08615938  0.71088787  0.95009723    -0.18300
C742        C  0.06633030  0.73744292  0.97948201     0.10100
S743        S  0.23649396  0.72116438  0.96952757    -0.33200
S744        S  0.00013710  0.74780504  0.97949108    -0.33200
H745        H  0.00418502  0.79933682  0.98647197     0.28100
H746        H  0.23716934  0.73062997  0.93241538     0.28100
H747        H  0.17542369  0.76069315  0.02301190     0.18700
H748        H  0.06071839  0.69582858  0.93031685     0.18700
C749        C  0.98796820  0.70235060  0.13909694    -0.07100
C750        C  0.93698309  0.70444103  0.14796965    -0.18200
C751        C  0.90803712  0.66127225  0.14980162     0.10100
C752        C  0.92991538  0.61438515  0.14188530    -0.07000
C753        C  0.98199146  0.61185240  0.13760149    -0.18300
C754        C  0.01113387  0.65483866  0.13654797     0.10100
S755        S  0.84341735  0.66890743  0.16133805    -0.33200
S756        S  0.07661560  0.64601978  0.12857430    -0.33200
H757        H  0.09066699  0.67848924  0.15655398     0.28100
H758        H  0.84054078  0.62332395  0.17988198     0.28100
H759        H  0.91871550  0.74033128  0.15182689     0.18700
H760        H  0.00021311  0.57620551  0.13267526     0.18700
C761        C  0.80993937  0.97146079  0.14526105    -0.07100
C762        C  0.85214261  0.99777303  0.15681260    -0.18200
C763        C  0.89921454  0.97433363  0.15882285     0.10100
C764        C  0.90466389  0.92355058  0.14855658    -0.07000
C765        C  0.86158882  0.89626459  0.14108080    -0.18300
C766        C  0.81475731  0.91925956  0.13953656     0.10100
S767        S  0.95152029  0.01264339  0.17023687    -0.33200
S768        S  0.76313201  0.87995617  0.12806354    -0.33200
H769        H  0.72839328  0.91023275  0.14593193     0.28100
H770        H  0.97171716  0.97761728  0.19441998     0.28100
H771        H  0.84931299  0.03765385  0.16162165     0.18700
H772        H  0.86486963  0.85708502  0.13383878     0.18700
C773        C  0.15908687  0.90078339  0.28771664    -0.07100
C774        C  0.14128065  0.85284197  0.27981936    -0.18200
C775        C  0.12514717  0.84023744  0.24501701     0.10100
C776        C  0.12800321  0.87603486  0.21715780    -0.07000
C777        C  0.14947594  0.92263315  0.22501608    -0.18300
C778        C  0.16468332  0.93531664  0.25967803     0.10100
S779        S  0.09747485  0.77980578  0.23897227    -0.33200
S780        S  0.18895570  0.99718928  0.26680858    -0.33200
H781        H  0.21977497  0.98405436  0.29583193     0.28100
H782        H  0.05458222  0.79886144  0.22191889     0.28100
H783        H  0.13621615  0.82642231  0.30142861     0.18700
H784        H  0.15345419  0.95028753  0.20409603     0.18700
C785        C  0.23274904  0.94665240  0.99290597    -0.07100
C786        C  0.22969884  0.98010528  0.02213088    -0.18200
C787        C  0.20529283  0.96693593  0.05407986     0.10100
C788        C  0.18486129  0.91871343  0.05758620    -0.07000
C789        C  0.18860441  0.88543698  0.02863437    -0.18300
C790        C  0.21007278  0.89934200  0.99620054     0.10100
S791        S  0.20137032  0.01306478  0.08935794    -0.22000
S792        S  0.20204189  0.85670493  0.95904736    -0.33200
H793        H  0.19032713  0.89447830  0.93413598     0.28100
H794        H  0.19569641  0.97897583  0.11762233     0.28100
H795        H  0.24649374  0.01659671  0.02018299     0.18700
H796        H  0.17070453  0.84968154  0.03004218     0.18700
C797        C  0.97672128  0.82573073  0.65247712    -0.07100
C798        C  0.00099898  0.87063149  0.66018423    -0.18200
C799        C  0.97396603  0.91557458  0.66373111     0.10100
C800        C  0.92189812  0.91591925  0.65773572    -0.07000
C801        C  0.89743941  0.87004182  0.65519616    -0.18300
C802        C  0.92431343  0.82495748  0.65336833     0.10100
S803        S  0.00861007  0.97184127  0.67115880    -0.33200
S804        S  0.89150603  0.76670655  0.65051748    -0.33200
H805        H  0.84370822  0.78659303  0.65677117     0.28100
H806        H  0.97545531  0.99051456  0.69718403     0.28100
H807        H  0.04125241  0.87147423  0.66055159     0.18700
H808        H  0.85746000  0.86987020  0.65171164     0.18700
C809        C  0.91029454  0.19049757  0.55922663    -0.07100
C810        C  0.87253993  0.20572176  0.53557606    -0.18200
C811        C  0.88319261  0.23081861  0.50359607     0.10100
C812        C  0.93284583  0.24458259  0.49598696    -0.07000
C813        C  0.97050029  0.23119173  0.52044367    -0.18300
C814        C  0.96002076  0.20294588  0.55128134     0.10100
S815        S  0.83250986  0.24424051  0.47292820    -0.33200
S816        S  0.01034384  0.18278117  0.58018633    -0.33200
H817        H  0.04922148  0.20268552  0.55977354     0.28100
H818        H  0.79337559  0.23179293  0.49605492     0.28100
H819        H  0.83469095  0.19500382  0.54102900     0.18700
H820        H  0.00844522  0.24136279  0.51462637     0.18700
C821        C  0.96021052  0.00546623  0.52627341    -0.07100
C822        C  0.97847899  0.04949918  0.51142706    -0.18200
C823        C  0.01948847  0.04854337  0.48865508     0.10100
C824        C  0.04228591  0.00217461  0.47990061    -0.07000
C825        C  0.02346915  0.95809612  0.49500213    -0.18300
C826        C  0.98291340  0.95927446  0.51815786     0.10100
S827        S  0.03957177  0.10754987  0.47118682    -0.33200
S828        S  0.96267506  0.90088753  0.53699817    -0.33200
H829        H  0.91299379  0.91536689  0.54273291     0.28100
H830        H  0.08683505  0.10347035  0.48726771     0.28100
H831        H  0.96153303  0.08512921  0.51851059     0.18700
H832        H  0.04028579  0.92223029  0.48859424     0.18700
C833        C  0.69530941  0.13651295  0.44990853    -0.07100
C834        C  0.69062013  0.16039075  0.48340027    -0.18200
C835        C  0.71504801  0.14286356  0.51408112     0.10100
C836        C  0.74556029  0.09961977  0.51189566    -0.07000
C837        C  0.75086369  0.07546042  0.47849620    -0.18300
C838        C  0.72680010  0.09390120  0.44745947     0.10100
S839        S  0.70429280  0.17503506  0.55628305    -0.33200
S840        S  0.73951561  0.06290154  0.40549172    -0.33200
H841        H  0.73753560  0.10680854  0.38487178     0.28100
H842        H  0.66344165  0.20428060  0.54513544     0.28100
H843        H  0.66574113  0.19202359  0.48605505     0.18700
H844        H  0.77509892  0.04301842  0.47632731     0.18700
C845        C  0.60447690  0.93765593  0.65040304    -0.07100
C846        C  0.60178478  0.98837709  0.64076269    -0.18200
C847        C  0.64497325  0.01672105  0.63548138     0.10100
C848        C  0.69254142  0.99433923  0.64050245    -0.07000
C849        C  0.69447452  0.94526334  0.65401295    -0.18300
C850        C  0.65141793  0.91716329  0.65890413     0.10100
S851        S  0.63652297  0.07924882  0.61892264    -0.33200
S852        S  0.65863086  0.85478948  0.67542624    -0.33200
H853        H  0.61287138  0.85612282  0.69355426     0.28100
H854        H  0.66500908  0.07017529  0.58794216     0.28100
H855        H  0.56600753  0.00475729  0.63388281     0.18700
H856        H  0.73011902  0.92760473  0.65946704     0.18700
C857        C  0.77260236  0.07780187  0.01218461    -0.07100
C858        C  0.75298844  0.07175717  0.97721983    -0.18200
C859        C  0.77891648  0.08812100  0.94664293     0.10100
C860        C  0.82568945  0.11084840  0.95099849    -0.07000
C861        C  0.84460072  0.11771651  0.98556252    -0.18300
C862        C  0.81929123  0.10191567  0.01587610     0.10100
S863        S  0.75129356  0.07701294  0.90322355    -0.33200
S864        S  0.85056420  0.11333565  0.05799069    -0.33200
H865        H  0.81275599  0.14536278  0.07067149     0.28100
H866        H  0.77844645  0.11263608  0.88422215     0.28100
H867        H  0.71725856  0.05412531  0.97358416     0.18700
H868        H  0.88044277  0.13531730  0.98897258     0.18700
C869        C  0.00927900  0.05319023  0.98125365    -0.07100
C870        C  0.96912356  0.04554463  0.00414514    -0.18200
C871        C  0.96577970  0.00179217  0.02383936     0.10100
C872        C  0.00431773  0.96595198  0.02156300    -0.07000
C873        C  0.04461355  0.97338876  0.99869623    -0.18300
C874        C  0.04745421  0.01680447  0.97836074     0.10100
S875        S  0.91120910  0.99299746  0.05103565    -0.33200
S876        S  0.10098069  0.02416068  0.94988969    -0.33200
H877        H  0.09969069  0.07667473  0.94936163     0.28100
H878        H  0.91206563  0.94048724  0.04929756     0.28100
H879        H  0.93895978  0.07250742  0.00522787     0.18700
H880        H  0.07506900  0.94653005  0.99804683     0.18700
C881        C  0.88512851  0.15877152  0.79077524    -0.07100
C882        C  0.84783367  0.12395593  0.78296130    -0.18200
C883        C  0.83543533  0.11153027  0.74759854     0.10100
C884        C  0.86181823  0.13322062  0.71906518    -0.07000
C885        C  0.89714231  0.17015605  0.72680036    -0.18300
C886        C  0.90898854  0.18323921  0.76224116     0.10100
S887        S  0.78936457  0.06408766  0.74077222    -0.33200
S888        S  0.95751042  0.22825528  0.76916213    -0.33200
H889        H  0.98199194  0.20117547  0.79637866     0.28100
H890        H  0.75841665  0.09539044  0.72001885     0.28100
H891        H  0.82913358  0.10512051  0.80469745     0.18700
H892        H  0.91724660  0.18743170  0.70506067     0.18700
C893        C  0.92350261  0.27275993  0.00131371    -0.07100
C894        C  0.88627432  0.25486466  0.02427779    -0.18200
C895        C  0.87268904  0.28120726  0.05557322     0.10100
C896        C  0.89502477  0.32723461  0.06362514    -0.07000
C897        C  0.93428143  0.34334549  0.04205239    -0.18300
C898        C  0.94810268  0.31739498  0.01090663     0.10100
S899        S  0.82833508  0.25391166  0.08539844    -0.33200
S900        S  0.99387633  0.34622904  0.98278444    -0.33200
H901        H  0.96779579  0.33645204  0.95087728     0.28100
H902        H  0.84481567  0.27845551  0.11662878     0.28100
H903        H  0.86796509  0.22005379  0.01801710     0.18700
H904        H  0.95233150  0.37825604  0.04797485     0.18700
C905        C  0.02390495  0.32484352  0.87292190    -0.07100
C906        C  0.99871957  0.36946282  0.88127418    -0.18200
C907        C  0.02315217  0.41536820  0.88176776     0.10100
C908        C  0.07465537  0.41743453  0.87350267    -0.07000
C909        C  0.09829822  0.37357903  0.86125077    -0.18300
C910        C  0.07353559  0.32759288  0.86043562     0.10100
S911        S  0.98696808  0.46838020  0.89686799    -0.33200
S912        S  0.10599333  0.27303823  0.84330178    -0.33200
H913        H  0.15259956  0.29533431  0.83858925     0.28100
H914        H  0.99688968  0.49638410  0.86587922     0.28100
H915        H  0.96034399  0.36836570  0.88988969     0.18700
H916        H  0.13695713  0.37504299  0.85345638     0.18700
C917        C  0.10001769  0.09803240  0.85336228    -0.07100
C918        C  0.14300888  0.12698885  0.85380394    -0.18200
C919        C  0.19041919  0.10520899  0.85707433     0.10100
C920        C  0.19521556  0.05245940  0.86035326    -0.07000
C921        C  0.15235476  0.02340482  0.85488136    -0.18300
C922        C  0.10491852  0.04561076  0.85149072     0.10100
S923        S  0.24286158  0.14659638  0.86021700    -0.33200
S924        S  0.05052912  0.00665927  0.84987474    -0.33200
H925        H  0.07588676  0.96063595  0.84673226     0.28100
H926        H  0.21802127  0.19071046  0.84969413     0.28100
H927        H  0.13896862  0.16720535  0.85524263     0.18700
H928        H  0.15535414  0.98310671  0.85616449     0.18700
loop_ 
_geom_bond_atom_site_label_1 
_geom_bond_atom_site_label_2 
_geom_bond_distance 
_geom_bond_site_symmetry_2 
_ccdc_geom_bond_type 
O1          Cr19   2.027       .  S
O1            C9   1.271       .  A
O2          Cr19   1.991       .  S
O2            C3   1.258       .  A
C3            O4   1.263       .  A
C3          C893   1.490   1_556  S
O4          Cr20   2.010   1_655  S
O5          Cr20   1.982       .  S
O5            C6   1.259       .  A
C6            O7   1.255   1_455  A
C6          C869   1.448       .  S
O7          Cr21   1.978       .  S
O8          Cr21   1.964       .  S
O8            C9   1.259       .  A
C9          C860   1.477       .  S
O10         Cr19   1.992       .  S
O10          C18   1.261       .  A
O11         Cr19   2.032       .  S
O11          C12   1.275   1_655  A
C12          O13   1.258       .  A
C12         C905   1.492       .  S
O13         Cr20   1.959       .  S
O14         Cr20   2.000       .  S
O14          C15   1.268       .  A
C15          O16   1.268       .  A
C15         C917   1.478       .  S
O16         Cr21   1.992   1_455  S
O17         Cr21   1.987       .  S
O17          C18   1.259       .  A
C18         C881   1.476       .  S
Cr19         O22   1.774       .  S
Cr20         O22   1.765   1_455  S
Cr21         O22   1.779       .  S
O23         Cr41   2.028       .  S
O23          C31   1.274       .  A
O24         Cr41   1.956       .  S
O24          C25   1.251       .  A
C25          O26   1.267       .  A
C25         C836   1.488       .  S
O26         Cr42   2.032       .  S
O27         Cr42   1.979       .  S
O27          C28   1.258       .  A
C28          O29   1.257       .  A
C28         C821   1.453       .  S
O29         Cr43   1.990       .  S
O30         Cr43   1.962       .  S
O30          C31   1.256       .  A
C31         C809   1.486       .  S
O32         Cr41   1.978       .  S
O32          C40   1.257       .  A
O33         Cr41   2.038       .  S
O33          C34   1.274       .  A
C34          O35   1.261   1_545  A
C34         C848   1.502   1_545  S
O35         Cr42   1.968   1_565  S
O36         Cr42   2.021   1_565  S
O36          C37   1.274       .  A
C37          O38   1.264   1_565  A
C37         C800   1.484       .  S
O38         Cr43   1.979       .  S
O39         Cr43   2.005       .  S
O39          C40   1.263       .  A
C40         C884   1.479       .  S
Cr41         O44   1.766       .  S
Cr42         O44   1.769       .  S
Cr43         O44   1.780       .  S
O45         Cr63   1.968       .  S
O45          C53   1.258       .  A
O46         Cr63   1.973       .  S
O46          C47   1.255       .  A
C47          O48   1.257       .  A
C47         C872   1.445       .  S
O48         Cr64   1.979   1_455  S
O49         Cr64   2.018   1_455  S
O49          C50   1.262       .  A
C50          O51   1.255       .  A
C50         C737   1.505       .  S
O51         Cr65   1.973       .  S
O52         Cr65   2.025       .  S
O52          C53   1.274       .  A
C53         C788   1.482       .  S
O54         Cr63   1.987       .  S
O54          C62   1.260       .  A
O55         Cr63   1.993   1_655  S
O55          C56   1.268       .  A
C56          O57   1.271       .  A
C56         C764   1.490       .  S
O57         Cr64   2.009       .  S
O58         Cr64   1.954       .  S
O58          C59   1.259   1_655  A
C59          O60   1.275       .  A
C59         C749   1.494   1_455  S
O60         Cr65   2.034       .  S
O61         Cr65   1.993       .  S
O61          C62   1.260       .  A
C62         C776   1.492       .  S
Cr63         O66   1.780       .  S
Cr64         O66   1.769   1_655  S
Cr65         O66   1.773       .  S
O67         Cr85   2.014       .  S
O67          C75   1.265       .  A
O68         Cr85   1.953       .  S
O68          C69   1.255       .  A
C69          O70   1.266   1_565  A
C69         C824   1.477   1_565  S
O70         Cr86   2.016       .  S
O71         Cr86   1.998   1_565  S
O71          C72   1.261       .  A
C72          O73   1.262       .  A
C72         C716   1.479       .  S
O73         Cr87   2.003       .  S
O74         Cr87   1.972       .  S
O74          C75   1.255       .  A
C75         C692   1.484       .  S
O76         Cr85   1.962       .  S
O76          C84   1.258       .  A
O77         Cr85   2.014   1_545  S
O77          C78   1.268       .  A
C78          O79   1.266       .  A
C78         C701   1.499       .  S
O79         Cr86   2.001       .  S
O80         Cr86   2.020       .  S
O80          C81   1.274       .  A
C81          O82   1.266   1_545  A
C81         C725   1.488       .  S
O82         Cr87   1.982       .  S
O83         Cr87   2.033       .  S
O83          C84   1.270       .  A
C84         C773   1.474       .  S
Cr85         O88   1.772       .  S
Cr86         O88   1.766   1_545  S
Cr87         O88   1.783       .  S
O89        Cr107   2.020       .  S
O89          C97   1.268       .  A
O90        Cr107   1.964       .  S
O90          C91   1.255       .  A
C91          O92   1.267   1_565  A
C91         C785   1.492       .  S
O92        Cr108   2.028       .  S
O93        Cr108   1.981       .  S
O93          C94   1.259       .  A
C94          O95   1.257       .  A
C94         C653   1.450       .  S
O95        Cr109   1.974   1_545  S
O96        Cr109   1.964       .  S
O96          C97   1.256       .  A
C97         C641   1.479       .  S
O98        Cr107   1.983       .  S
O98         C106   1.260       .  A
O99        Cr107   2.022       .  S
O99         C100   1.271   1_565  A
C100        O101   1.260       .  A
C100        C920   1.502       .  S
O101       Cr108   1.977       .  S
O102       Cr108   2.016       .  S
O102        C103   1.270       .  A
C103        O104   1.265       .  A
C103        C680   1.479       .  S
O104       Cr109   1.984   1_545  S
O105       Cr109   1.997       .  S
O105        C106   1.263       .  A
C106        C665   1.481       .  S
Cr107       O110   1.770       .  S
Cr108       O110   1.773   1_545  S
Cr109       O110   1.777       .  S
O111       Cr129   2.031       .  S
O111        C119   1.272       .  A
O112       Cr129   1.981       .  S
O112        C113   1.255       .  A
C113        O114   1.269       .  A
C113        C605   1.512       .  S
O114       Cr130   2.029       .  S
O115       Cr130   1.992       .  S
O115        C116   1.263       .  A
C116        O117   1.258       .  A
C116        C629   1.465       .  S
O117       Cr131   1.972       .  S
O118       Cr131   1.952       .  S
O118        C119   1.256       .  A
C119        C713   1.495       .  S
O120       Cr129   1.983       .  S
O120        C128   1.258       .  A
O121       Cr129   2.030       .  S
O121        C122   1.274       .  A
C122        O123   1.264       .  A
C122        C620   1.494       .  S
O123       Cr130   1.976       .  S
O124       Cr130   2.026       .  S
O124        C125   1.271       .  A
C125        O126   1.266       .  A
C125        C845   1.490       .  S
O126       Cr131   1.987       .  S
O127       Cr131   1.996       .  S
O127        C128   1.260       .  A
C128        C668   1.476       .  S
Cr129       O132   1.779       .  S
Cr130       O132   1.773       .  S
Cr131       O132   1.781       .  S
O133       Cr151   2.025       .  S
O133        C141   1.271       .  A
O134       Cr151   1.953       .  S
O134        C135   1.251       .  A
C135        O136   1.263       .  A
C135        C656   1.462       .  S
O136       Cr152   2.007   1_545  S
O137       Cr152   2.013   1_545  S
O137        C138   1.265       .  A
C138        O139   1.258       .  A
C138        C857   1.499       .  S
O139       Cr153   1.989       .  S
O140       Cr153   1.974       .  S
O140        C141   1.257       .  A
C141        C593   1.510       .  S
O142       Cr151   1.965       .  S
O142        C150   1.257       .  A
O143       Cr151   2.018       .  S
O143        C144   1.271   1_545  A
C144        O145   1.267       .  A
C144        C572   1.493       .  S
O145       Cr152   1.994       .  S
O146       Cr152   2.016       .  S
O146        C147   1.272       .  A
C147        O148   1.270   1_565  A
C147        C761   1.494       .  S
O148       Cr153   1.996       .  S
O149       Cr153   2.023       .  S
O149        C150   1.265       .  A
C150        C581   1.475       .  S
Cr151       O154   1.769       .  S
Cr152       O154   1.768   1_565  S
Cr153       O154   1.772       .  S
O155       Cr173   2.017       .  S
O155        C163   1.268       .  A
O156       Cr173   1.947       .  S
O156        C157   1.248       .  A
C157        O158   1.264       .  A
C157        C632   1.454       .  S
O158       Cr174   2.017       .  S
O159       Cr174   1.990       .  S
O159        C160   1.263       .  A
C160        O161   1.267       .  A
C160        C545   1.484       .  S
O161       Cr175   2.012       .  S
O162       Cr175   1.971       .  S
O162        C163   1.260       .  A
C163        C833   1.496       .  S
O164       Cr173   1.956       .  S
O164        C172   1.256       .  A
O165       Cr173   2.032       .  S
O165        C166   1.270       .  A
C166        O167   1.262       .  A
C166        C728   1.503       .  S
O167       Cr174   1.973       .  S
O168       Cr174   2.007       .  S
O168        C169   1.269       .  A
C169        O170   1.268       .  A
C169        C557   1.489       .  S
O170       Cr175   1.997       .  S
O171       Cr175   2.029       .  S
O171        C172   1.269       .  A
C172        C584   1.480       .  S
Cr173       O176   1.773       .  S
Cr174       O176   1.767       .  S
Cr175       O176   1.780       .  S
O177       Cr195   2.020       .  S
O177        C185   1.272       .  A
O178       Cr195   1.985       .  S
O178        C179   1.260       .  A
C179        O180   1.263       .  A
C179        C596   1.502       .  S
O180       Cr196   2.016       .  S
O181       Cr196   1.986       .  S
O181        C182   1.259       .  A
C182        O183   1.254       .  A
C182        C497   1.453       .  S
O183       Cr197   1.981       .  S
O184       Cr197   1.970       .  S
O184        C185   1.259       .  A
C185        C521   1.485       .  S
O186       Cr195   2.001       .  S
O186        C194   1.263       .  A
O187       Cr195   2.029       .  S
O187        C188   1.272       .  A
C188        O189   1.261       .  A
C188        C677   1.493       .  S
O189       Cr196   1.968       .  S
O190       Cr196   2.004       .  S
O190        C191   1.270       .  A
C191        O192   1.268       .  A
C191        C533   1.479       .  S
O192       Cr197   1.987       .  S
O193       Cr197   1.994       .  S
O193        C194   1.261       .  A
C194        C509   1.496       .  S
Cr195       O198   1.771       .  S
Cr196       O198   1.769       .  S
Cr197       O198   1.779       .  S
O199       Cr217   2.028       .  S
O199        C207   1.271       .  A
O200       Cr217   1.958       .  S
O200        C201   1.255       .  A
C201        O202   1.266       .  A
C201        C473   1.481       .  S
O202       Cr218   2.028       .  S
O203       Cr218   1.970       .  S
O203        C204   1.254       .  A
C204        O205   1.254       .  A
C204        C461   1.444       .  S
O205       Cr219   1.981       .  S
O206       Cr219   1.970       .  S
O206        C207   1.259       .  A
C207        C548   1.494       .  S
O208       Cr217   1.992       .  S
O208        C216   1.262       .  A
O209       Cr217   2.028       .  S
O209        C210   1.270       .  A
C210        O211   1.262       .  A
C210        C485   1.492       .  S
O211       Cr218   1.970       .  S
O212       Cr218   2.017       .  S
O212        C213   1.272       .  A
C213        O214   1.265       .  A
C213        C617   1.476       .  S
O214       Cr219   1.981       .  S
O215       Cr219   2.003       .  S
O215        C216   1.263       .  A
C216        C512   1.480       .  S
Cr217       O220   1.767       .  S
Cr218       O220   1.772       .  S
Cr219       O220   1.777       .  S
O221       Cr239   1.974       .  S
O221        C229   1.261       .  A
O222       Cr239   1.971       .  S
O222        C223   1.250       .  A
C223        O224   1.256       .  A
C223        C464   1.445       .  S
O224       Cr240   1.981       .  S
O225       Cr240   2.024       .  S
O225        C226   1.266       .  A
C226        O227   1.251       .  A
C226        C428   1.499       .  S
O227       Cr241   1.961       .  S
O228       Cr241   2.037       .  S
O228        C229   1.277       .  A
C229        C608   1.501       .  S
O230       Cr239   1.986       .  S
O230        C238   1.257       .  A
O231       Cr239   1.984       .  S
O231        C232   1.268       .  A
C232        O233   1.276       .  A
C232        C560   1.487       .  S
O233       Cr240   2.022       .  S
O234       Cr240   1.957       .  S
O234        C235   1.258       .  A
C235        O236   1.277       .  A
C235        C440   1.497       .  S
O236       Cr241   2.038       .  S
O237       Cr241   1.993       .  S
O237        C238   1.260       .  A
C238        C449   1.486       .  S
Cr239       O242   1.777       .  S
Cr240       O242   1.772       .  S
Cr241       O242   1.769       .  S
O243       Cr261   2.009       .  S
O243        C251   1.266       .  A
O244       Cr261   1.952       .  S
O244        C245   1.251       .  A
C245        O246   1.264       .  A
C245        C500   1.470       .  S
O246       Cr262   2.015       .  S
O247       Cr262   1.992       .  S
O247        C248   1.262       .  A
C248        O249   1.265       .  A
C248        C644   1.489       .  S
O249       Cr263   2.009       .  S
O250       Cr263   1.961       .  S
O250        C251   1.256       .  A
C251        C416   1.483       .  S
O252       Cr261   1.967       .  S
O252        C260   1.257       .  A
O253       Cr261   2.018       .  S
O253        C254   1.271       .  A
C254        O255   1.263       .  A
C254        C401   1.503       .  S
O255       Cr262   1.982       .  S
O256       Cr262   2.014       .  S
O256        C257   1.270       .  A
C257        O258   1.266       .  A
C257        C569   1.478       .  S
O258       Cr263   1.988       .  S
O259       Cr263   2.021       .  S
O259        C260   1.266       .  A
C260        C452   1.473       .  S
Cr261       O264   1.773       .  S
Cr262       O264   1.770       .  S
Cr263       O264   1.781       .  S
O265       Cr283   1.981       .  S
O265        C273   1.257       .  A
O266       Cr283   2.005       .  S
O266        C267   1.263       .  A
C267        O268   1.260       .  A
C267        C413   1.496       .  S
O268       Cr284   1.987       .  S
O269       Cr284   2.003       .  S
O269        C270   1.265       .  A
C270        O271   1.254       .  A
C270        C380   1.462       .  S
O271       Cr285   1.955       .  S
O272       Cr285   2.010       .  S
O272        C273   1.265       .  A
C273        C740   1.499       .  S
O274       Cr283   2.030       .  S
O274        C282   1.271       .  A
O275       Cr283   1.982       .  S
O275        C276   1.264       .  A
C276        O277   1.271       .  A
C276        C536   1.484       .  S
O277       Cr284   2.012       .  S
O278       Cr284   1.988       .  S
O278        C279   1.266       .  A
C279        O280   1.264       .  A
C279        C908   1.494       .  S
O280       Cr285   2.005       .  S
O281       Cr285   1.959       .  S
O281        C282   1.257       .  A
C282        C389   1.480       .  S
Cr283       O286   1.769       .  S
Cr284       O286   1.766       .  S
Cr285       O286   1.765       .  S
O287       Cr305   1.969       .  S
O287        C295   1.260       .  A
O288       Cr305   2.019       .  S
O288        C289   1.269       .  A
C289        O290   1.260       .  A
C289        C689   1.498       .  S
O290       Cr306   1.980   1_455  S
O291       Cr306   2.013       .  S
O291        C292   1.264   1_655  A
C292        O293   1.250       .  A
C292        C365   1.474       .  S
O293       Cr307   1.951       .  S
O294       Cr307   2.009       .  S
O294        C295   1.266       .  A
C295        C425   1.500       .  S
O296       Cr305   2.026       .  S
O296        C304   1.270       .  A
O297       Cr305   1.995       .  S
O297        C298   1.266       .  A
C298        O299   1.268   1_455  A
C298        C797   1.482   1_455  S
O299       Cr306   2.004       .  S
O300       Cr306   1.965       .  S
O300        C301   1.257       .  A
C301        O302   1.272       .  A
C301        C488   1.492       .  S
O302       Cr307   2.037   1_655  S
O303       Cr307   1.965       .  S
O303        C304   1.260       .  A
C304        C392   1.486       .  S
Cr305       O308   1.774       .  S
Cr306       O308   1.761   1_655  S
Cr307       O308   1.769       .  S
O309       Cr327   2.008       .  S
O309        C317   1.262       .  A
O310       Cr327   1.944       .  S
O310        C311   1.253       .  A
C311        O312   1.267   1_655  A
C311        C368   1.474       .  S
O312       Cr328   2.017       .  S
O313       Cr328   1.999   1_655  S
O313        C314   1.266       .  A
C314        O315   1.262       .  A
C314        C812   1.492       .  S
O315       Cr329   2.002       .  S
O316       Cr329   1.992       .  S
O316        C317   1.259       .  A
C317        C476   1.495       .  S
O318       Cr327   1.953       .  S
O318        C326   1.257       .  A
O319       Cr327   2.000   1_455  S
O319        C320   1.262       .  A
C320        O321   1.267       .  A
C320        C437   1.501       .  S
O321       Cr328   1.997       .  S
O322       Cr328   2.004       .  S
O322        C323   1.268   1_455  A
C323        O324   1.270       .  A
C323        C704   1.484   1_655  S
O324       Cr329   1.999       .  S
O325       Cr329   2.039       .  S
O325        C326   1.272       .  A
C326        C356   1.486       .  S
Cr327       O330   1.777       .  S
Cr328       O330   1.774   1_455  S
Cr329       O330   1.780       .  S
O331       Cr349   1.999       .  S
O331        C339   1.260       .  A
O332       Cr349   1.955       .  S
O332        C333   1.255       .  A
C333        O334   1.262       .  A
C333        C377   1.465       .  S
O334       Cr350   1.996       .  S
O335       Cr350   1.992       .  S
O335        C336   1.262       .  A
C336        O337   1.265       .  A
C336        C524   1.483       .  S
O337       Cr351   2.005       .  S
O338       Cr351   1.984       .  S
O338        C339   1.258       .  A
C339        C896   1.485       .  S
O340       Cr349   1.961       .  S
O340        C348   1.258       .  A
O341       Cr349   1.988       .  S
O341        C342   1.262       .  A
C342        O343   1.265       .  A
C342        C752   1.493       .  S
O343       Cr350   1.995       .  S
O344       Cr350   1.998       .  S
O344        C345   1.266       .  A
C345        O346   1.266       .  A
C345        C404   1.490       .  S
O346       Cr351   1.997       .  S
O347       Cr351   2.023       .  S
O347        C348   1.268       .  A
C348        C353   1.480       .  S
Cr349       O352   1.776       .  S
Cr350       O352   1.779       .  S
Cr351       O352   1.783       .  S
C353        C354   1.407       .  A
C353        C358   1.412       .  A
C354        C355   1.408       .  A
C354        H363   1.084       .  S
C355        C356   1.415       .  A
C355        S359   1.800       .  S
C356        C357   1.406       .  A
C357        C358   1.394       .  A
C357        H364   1.084       .  S
C358        S360   1.807       .  S
S359        H362   1.406       .  S
S360        H361   1.408       .  S
C365        C366   1.409       .  A
C365        C370   1.409   1_455  A
C366        C367   1.394       .  A
C366        H375   1.084       .  S
C367        C368   1.410   1_455  A
C367        S371   1.803       .  S
C368        C369   1.409       .  A
C369        C370   1.393       .  A
C369        H376   1.084       .  S
C370        S372   1.803       .  S
S371        H374   1.408       .  S
S372        H373   1.408       .  S
C377        C378   1.405   1_655  A
C377        C382   1.410   1_554  A
C378        C379   1.393       .  A
C378        H387   1.084       .  S
C379        C380   1.408   1_554  A
C379        S383   1.803       .  S
C380        C381   1.404       .  A
C381        C382   1.391   1_455  A
C381        H388   1.084       .  S
C382        S384   1.803       .  S
S383        H386   1.407       .  S
S384        H385   1.407       .  S
C389        C390   1.405       .  A
C389        C394   1.413       .  A
C390        C391   1.405       .  A
C390        H399   1.084       .  S
C391        C392   1.416       .  A
C391        S395   1.801       .  S
C392        C393   1.406       .  A
C393        C394   1.396       .  A
C393        H400   1.084       .  S
C394        S396   1.806       .  S
S395        H398   1.407       .  S
S396        H397   1.407       .  S
C401        C402   1.411       .  A
C401        C406   1.420       .  A
C402        C403   1.403       .  A
C402        H411   1.083       .  S
C403        C404   1.412       .  A
C403        S407   1.799       .  S
C404        C405   1.406       .  A
C405        C406   1.408       .  A
C405        H412   1.083       .  S
C406        S408   1.810       .  S
S407        H410   1.407       .  S
S408        H409   1.407       .  S
C413        C414   1.414   1_556  A
C413        C418   1.420       .  A
C414        C415   1.410       .  A
C414        H423   1.082       .  S
C415        C416   1.406       .  A
C415        S419   1.804       .  S
C416        C417   1.403       .  A
C417        C418   1.397   1_554  A
C417        H424   1.082       .  S
C418        S420   1.813       .  S
S419        H422   1.407       .  S
S420        H421   1.407       .  S
C425        C426   1.407       .  A
C425        C430   1.419       .  A
C426        C427   1.399       .  A
C426        H435   1.081       .  S
C427        C428   1.422       .  A
C427        S431   1.815       .  S
C428        C429   1.409       .  A
C429        C430   1.409       .  A
C429        H436   1.083       .  S
C430        S432   1.800       .  S
S431        H434   1.407       .  S
S432        H433   1.407       .  S
C437        C438   1.405       .  A
C437        C442   1.426       .  A
C438        C439   1.403       .  A
C438        H447   1.084       .  S
C439        C440   1.422       .  A
C439        S443   1.804       .  S
C440        C441   1.403       .  A
C441        C442   1.404       .  A
C441        H448   1.084       .  S
C442        S444   1.803       .  S
S443        H446   1.408       .  S
S444        H445   1.408       .  S
C449        C450   1.404       .  A
C449        C454   1.420       .  A
C450        C451   1.403       .  A
C450        H459   1.084       .  S
C451        C452   1.414       .  A
C451        S455   1.801       .  S
C452        C453   1.398       .  A
C453        C454   1.398       .  A
C453        H460   1.084       .  S
C454        S456   1.804       .  S
S455        H458   1.404       .  S
S456        H457   1.407       .  S
C461        C462   1.397       .  A
C461        C466   1.409       .  A
C462        C463   1.389       .  A
C462        H471   1.085       .  S
C463        C464   1.412       .  A
C463        S467   1.807       .  S
C464        C465   1.398       .  A
C465        C466   1.390       .  A
C465        H472   1.085       .  S
C466        S468   1.803       .  S
S467        H470   1.406       .  S
S468        H469   1.406       .  S
C473        C474   1.394       .  A
C473        C478   1.416       .  A
C474        C475   1.387       .  A
C474        H483   1.086       .  S
C475        C476   1.419       .  A
C475        S479   1.792       .  S
C476        C477   1.411       .  A
C477        C478   1.415       .  A
C477        H484   1.083       .  S
C478        S480   1.800       .  S
S479        H482   1.391       .  S
S480        H481   1.404       .  S
C485        C486   1.404       .  A
C485        C490   1.416       .  A
C486        C487   1.399       .  A
C486        H495   1.083       .  S
C487        C488   1.419       .  A
C487        S491   1.812       .  S
C488        C489   1.407       .  A
C489        C490   1.409       .  A
C489        H496   1.084       .  S
C490        S492   1.801       .  S
S491        H494   1.407       .  S
S492        H493   1.405       .  S
C497        C498   1.399       .  A
C497        C502   1.408       .  A
C498        C499   1.395   1_556  A
C498        H507   1.085       .  S
C499        C500   1.414       .  A
C499        S503   1.800       .  S
C500        C501   1.406       .  A
C501        C502   1.394   1_554  A
C501        H508   1.084       .  S
C502        S504   1.806       .  S
S503        H506   1.401       .  S
S504        H505   1.405       .  S
C509        C510   1.411       .  A
C509        C514   1.416       .  A
C510        C511   1.400       .  A
C510        H519   1.084       .  S
C511        C512   1.409       .  A
C511        S515   1.802       .  S
C512        C513   1.406       .  A
C513        C514   1.405       .  A
C513        H520   1.084       .  S
C514        S516   1.799       .  S
S515        H518   1.403       .  S
S516        H517   1.407       .  S
C521        C522   1.402       .  A
C521        C526   1.417       .  A
C522        C523   1.396       .  A
C522        H531   1.084       .  S
C523        C524   1.412   1_556  A
C523        S527   1.795   1_556  S
C524        C525   1.404   1_554  A
C525        C526   1.410       .  A
C525        H532   1.083       .  S
C526        S528   1.807       .  S
S527        H530   1.407       .  S
S528        H529   1.407       .  S
C533        C534   1.403       .  A
C533        C538   1.413       .  A
C534        C535   1.403       .  A
C534        H543   1.084       .  S
C535        C536   1.416       .  A
C535        S539   1.800       .  S
C536        C537   1.405       .  A
C537        C538   1.399       .  A
C537        H544   1.084       .  S
C538        S540   1.803       .  S
S539        H542   1.407       .  S
S540        H541   1.406       .  S
C545        C546   1.403       .  A
C545        C550   1.411       .  A
C546        C547   1.402       .  A
C546        H555   1.083       .  S
C547        C548   1.417       .  A
C547        S551   1.798       .  S
C548        C549   1.409       .  A
C549        C550   1.405       .  A
C549        H556   1.084       .  S
C550        S552   1.802       .  S
S551        H554   1.406       .  S
S552        H553   1.407       .  S
C557        C558   1.404       .  A
C557        C562   1.414       .  A
C558        C559   1.408       .  A
C558        H567   1.084       .  S
C559        C560   1.419       .  A
C559        S563   1.799       .  S
C560        C561   1.402       .  A
C561        C562   1.398       .  A
C561        H568   1.084       .  S
C562        S564   1.796       .  S
S563        H566   1.407       .  S
S564        H565   1.407       .  S
C569        C570   1.403       .  A
C569        C574   1.411       .  A
C570        C571   1.406       .  A
C570        H579   1.084       .  S
C571        C572   1.416       .  A
C571        S575   1.798       .  S
C572        C573   1.407       .  A
C573        C574   1.400       .  A
C573        H580   1.084       .  S
C574        S576   1.802       .  S
S575        H578   1.406       .  S
S576        H577   1.404       .  S
C581        C582   1.406       .  A
C581        C586   1.409       .  A
C582        C583   1.407       .  A
C582        H591   1.084       .  S
C583        C584   1.414       .  A
C583        S587   1.801       .  S
C584        C585   1.405       .  A
C585        C586   1.394       .  A
C585        H592   1.084       .  S
C586        S588   1.805       .  S
S587        H590   1.406       .  S
S588        H589   1.406       .  S
C593        C594   1.411       .  A
C593        C598   1.424       .  A
C594        C595   1.413       .  A
C594        H603   1.083       .  S
C595        C596   1.421   1_554  A
C595        S599   1.800       .  S
C596        C597   1.402   1_556  A
C597        C598   1.398       .  A
C597        H604   1.084   1_554  S
C598        S600   1.796       .  S
S599        H602   1.407       .  S
S600        H601   1.402       .  S
C605        C606   1.410       .  A
C605        C610   1.426       .  A
C606        C607   1.411       .  A
C606        H615   1.082       .  S
C607        C608   1.417       .  A
C607        S611   1.808       .  S
C608        C609   1.404       .  A
C609        C610   1.407       .  A
C609        H616   1.082       .  S
C610        S612   1.803       .  S
S611        H614   1.406       .  S
S612        H613   1.408       .  S
C617        C618   1.396       .  A
C617        C622   1.414       .  A
C618        C619   1.399       .  A
C618        H627   1.084       .  S
C619        C620   1.416       .  A
C619        S623   1.792       .  S
C620        C621   1.405       .  A
C621        C622   1.409       .  A
C621        H628   1.082       .  S
C622        S624   1.806       .  S
S623        H626   1.405       .  S
S624        H625   1.407       .  S
C629        C630   1.407   1_565  A
C629        C634   1.412       .  A
C630        C631   1.390       .  A
C630        H639   1.085       .  S
C631        C632   1.403       .  A
C631        S635   1.803       .  S
C632        C633   1.404       .  A
C633        C634   1.399   1_545  A
C633        H640   1.084       .  S
C634        S636   1.805       .  S
S635        H638   1.405       .  S
S636        H637   1.404       .  S
C641        C642   1.402       .  A
C641        C646   1.411       .  A
C642        C643   1.406   1_556  A
C642        H651   1.082       .  S
C643        C644   1.418       .  A
C643        S647   1.808       .  S
C644        C645   1.405   1_554  A
C645        C646   1.402       .  A
C645        H652   1.084       .  S
C646        S648   1.803       .  S
S647        H650   1.406       .  S
S648        H649   1.407       .  S
C653        C654   1.399       .  A
C653        C658   1.409   1_546  A
C654        C655   1.391   1_556  A
C654        H663   1.085       .  S
C655        C656   1.410       .  A
C655        S659   1.801   1_554  S
C656        C657   1.404   1_545  A
C657        C658   1.396       .  A
C657        H664   1.084       .  S
C658        S660   1.805       .  S
S659        H662   1.407   1_556  S
S660        H661   1.405       .  S
C665        C666   1.406       .  A
C665        C670   1.414       .  A
C666        C667   1.397       .  A
C666        H675   1.084       .  S
C667        C668   1.410       .  A
C667        S671   1.800       .  S
C668        C669   1.405       .  A
C669        C670   1.402       .  A
C669        H676   1.084       .  S
C670        S672   1.800       .  S
S671        H674   1.406       .  S
S672        H673   1.407       .  S
C677        C678   1.409       .  A
C677        C682   1.417       .  A
C678        C679   1.405       .  A
C678        H687   1.081       .  S
C679        C680   1.404       .  A
C679        S683   1.801       .  S
C680        C681   1.405       .  A
C681        C682   1.405       .  A
C681        H688   1.084       .  S
C682        S684   1.800       .  S
S683        H686   1.407       .  S
S684        H685   1.407       .  S
C689        C690   1.415       .  A
C689        C694   1.417       .  A
C690        C691   1.411       .  A
C690        H699   1.082       .  S
C691        C692   1.406       .  A
C691        S695   1.804       .  S
C692        C693   1.403       .  A
C693        C694   1.398       .  A
C693        H700   1.083       .  S
C694        S696   1.803       .  S
S695        H698   1.407       .  S
S696        H697   1.407       .  S
C701        C702   1.408       .  A
C701        C706   1.414       .  A
C702        C703   1.401   1_455  A
C702        H711   1.084       .  S
C703        C704   1.413   1_655  A
C703        S707   1.802       .  S
C704        C705   1.405       .  A
C705        C706   1.412       .  A
C705        H712   1.083       .  S
C706        S708   1.800       .  S
S707        H710   1.405       .  S
S708        H709   1.407       .  S
C713        C714   1.411       .  A
C713        C718   1.416       .  A
C714        C715   1.395       .  A
C714        H723   1.083       .  S
C715        C716   1.408       .  A
C715        S719   1.806   1_565  S
C716        C717   1.407       .  A
C717        C718   1.409       .  A
C717        H724   1.081       .  S
C718        S720   1.800       .  S
S719        H722   1.405       .  S
S720        H721   1.407       .  S
C725        C726   1.406       .  A
C725        C730   1.407       .  A
C726        C727   1.413       .  A
C726        H735   1.083   1_545  S
C727        C728   1.422       .  A
C727        S731   1.807   1_545  S
C728        C729   1.407       .  A
C729        C730   1.396       .  A
C729        H736   1.078       .  S
C730        S732   1.798       .  S
S731        H734   1.407       .  S
S732        H733   1.406       .  S
C737        C738   1.410       .  A
C737        C742   1.420   1_554  A
C738        C739   1.400   1_554  A
C738        H747   1.083       .  S
C739        C740   1.418       .  A
C739        S743   1.803       .  S
C740        C741   1.409       .  A
C741        C742   1.407       .  A
C741        H748   1.083       .  S
C742        S744   1.800       .  S
S743        H746   1.408       .  S
S744        H745   1.408       .  S
C749        C750   1.413       .  A
C749        C754   1.413   1_655  A
C750        C751   1.402       .  A
C750        H759   1.084       .  S
C751        C752   1.411       .  A
C751        S755   1.802       .  S
C752        C753   1.412       .  A
C753        C754   1.400   1_655  A
C753        H760   1.083   1_655  S
C754        S756   1.801       .  S
S755        H758   1.408       .  S
S756        H757   1.408       .  S
C761        C762   1.408       .  A
C761        C766   1.417       .  A
C762        C763   1.410       .  A
C762        H771   1.084   1_565  S
C763        C764   1.417       .  A
C763        S767   1.799   1_565  S
C764        C765   1.403       .  A
C765        C766   1.398       .  A
C765        H772   1.085       .  S
C766        S768   1.800       .  S
S767        H770   1.407   1_545  S
S768        H769   1.400       .  S
C773        C774   1.404       .  A
C773        C778   1.408       .  A
C774        C775   1.407       .  A
C774        H783   1.084       .  S
C775        C776   1.419       .  A
C775        S779   1.801       .  S
C776        C777   1.409       .  A
C777        C778   1.395       .  A
C777        H784   1.084       .  S
C778        S780   1.805       .  S
S779        H782   1.407       .  S
S780        H781   1.404       .  S
C785        C786   1.409   1_556  A
C785        C790   1.417       .  A
C786        C787   1.410       .  A
C786        H795   1.083   1_565  S
C787        C788   1.415       .  A
C787        S791   1.802   1_565  S
C788        C789   1.399       .  A
C789        C790   1.396   1_554  A
C789        H796   1.077       .  S
C790        S792   1.804       .  S
S791        H794   1.406   1_545  S
S792        H793   1.408       .  S
C797        C798   1.402   1_655  A
C797        C802   1.411       .  A
C798        C799   1.405   1_455  A
C798        H807   1.084       .  S
C799        C800   1.418       .  A
C799        S803   1.799   1_655  S
C800        C801   1.402       .  A
C801        C802   1.402       .  A
C801        H808   1.083       .  S
C802        S804   1.802       .  S
S803        H806   1.407   1_455  S
S804        H805   1.407       .  S
C809        C810   1.401       .  A
C809        C814   1.415       .  A
C810        C811   1.403       .  A
C810        H819   1.081       .  S
C811        C812   1.420       .  A
C811        S815   1.810       .  S
C812        C813   1.405       .  A
C813        C814   1.409       .  A
C813        H820   1.083   1_655  S
C814        S816   1.807   1_655  S
S815        H818   1.407       .  S
S816        H817   1.407       .  S
C821        C822   1.399       .  A
C821        C826   1.406   1_545  A
C822        C823   1.395   1_655  A
C822        H831   1.085       .  S
C823        C824   1.416       .  A
C823        S827   1.800       .  S
C824        C825   1.409   1_545  A
C825        C826   1.394   1_455  A
C825        H832   1.083       .  S
C826        S828   1.806       .  S
S827        H830   1.407       .  S
S828        H829   1.405       .  S
C833        C834   1.405       .  A
C833        C838   1.417       .  A
C834        C835   1.397       .  A
C834        H843   1.078       .  S
C835        C836   1.414       .  A
C835        S839   1.813       .  S
C836        C837   1.407       .  A
C837        C838   1.412       .  A
C837        H844   1.083       .  S
C838        S840   1.800       .  S
S839        H842   1.405       .  S
S840        H841   1.407       .  S
C845        C846   1.407       .  A
C845        C850   1.407       .  A
C846        C847   1.409   1_565  A
C846        H855   1.084   1_565  S
C847        C848   1.420   1_545  A
C847        S851   1.798       .  S
C848        C849   1.409       .  A
C849        C850   1.401       .  A
C849        H856   1.084       .  S
C850        S852   1.790       .  S
S851        H854   1.407       .  S
S852        H853   1.407       .  S
C857        C858   1.413   1_554  A
C857        C862   1.424       .  A
C858        C859   1.412       .  A
C858        H867   1.083       .  S
C859        C860   1.412       .  A
C859        S863   1.803       .  S
C860        C861   1.395       .  A
C861        C862   1.391   1_556  A
C861        H868   1.085       .  S
C862        S864   1.804       .  S
S863        H866   1.403       .  S
S864        H865   1.406       .  S
C869        C870   1.397   1_456  A
C869        C874   1.412       .  A
C870        C871   1.389       .  A
C870        H879   1.081       .  S
C871        C872   1.408   1_645  A
C871        S875   1.806   1_545  S
C872        C873   1.398   1_554  A
C873        C874   1.393   1_565  A
C873        H880   1.085       .  S
C874        S876   1.806       .  S
S875        H878   1.407       .  S
S876        H877   1.406       .  S
C881        C882   1.405       .  A
C881        C886   1.412       .  A
C882        C883   1.398       .  A
C882        H891   1.084       .  S
C883        C884   1.411       .  A
C883        S887   1.800       .  S
C884        C885   1.407       .  A
C885        C886   1.401       .  A
C885        H892   1.084       .  S
C886        S888   1.803       .  S
S887        H890   1.407       .  S
S888        H889   1.407       .  S
C893        C894   1.409       .  A
C893        C898   1.416       .  A
C894        C895   1.408       .  A
C894        H903   1.083       .  S
C895        C896   1.407       .  A
C895        S899   1.797       .  S
C896        C897   1.403       .  A
C897        C898   1.400       .  A
C897        H904   1.079       .  S
C898        S900   1.802   1_554  S
S899        H902   1.407       .  S
S900        H901   1.403       .  S
C905        C906   1.401   1_455  A
C905        C910   1.419       .  A
C906        C907   1.400   1_655  A
C906        H915   1.083       .  S
C907        C908   1.423       .  A
C907        S911   1.802   1_455  S
C908        C909   1.405       .  A
C909        C910   1.406       .  A
C909        H916   1.082       .  S
C910        S912   1.809       .  S
S911        H914   1.408       .  S
S912        H913   1.407       .  S
C917        C918   1.399       .  A
C917        C922   1.409       .  A
C918        C919   1.402       .  A
C918        H927   1.082       .  S
C919        C920   1.422       .  A
C919        S923   1.806       .  S
C920        C921   1.411       .  A
C921        C922   1.408       .  A
C921        H928   1.082   1_545  S
C922        S924   1.807       .  S
S923        H926   1.407       .  S
S924        H925   1.407   1_545  S
