geometry optimzed in LAMMPS
_audit_creation_date              2020-12-01 
_audit_creation_method            'lammps2cif' 
_symmetry_space_group_name_H-M    'P1' 
_symmetry_Int_Tables_number       1 
_symmetry_cell_setting            triclinic 
loop_ 
_symmetry_equiv_pos_as_xyz 
  x,y,z 
_cell_length_a                    74.1580767 
_cell_length_b                    74.02258737751792 
_cell_length_c                    29.588643600154885 
_cell_angle_alpha                 89.85304548349893 
_cell_angle_beta                  89.97200096526441 
_cell_angle_gamma                 90.03734956960096 
loop_ 
_atom_site_label 
_atom_site_type_symbol 
_atom_site_fract_x 
_atom_site_fract_y 
_atom_site_fract_z 
_atom_site_charge 
O1          O  0.87648545  0.20580014  0.42966741    -0.81800
C2          C  0.85317260  0.25445254  0.55848382     0.97600
O3          O  0.86411828  0.24152217  0.55497596    -0.70900
O4          O  0.87669036  0.21086918  0.52405214    -0.74500
Al5        Al  0.87714226  0.23512194  0.50256249     1.49000
C6          C  0.86515853  0.19834578  0.52310138     0.92800
O7          O  0.82603489  0.21466197  0.44922239    -0.80700
O8          O  0.83661865  0.24770084  0.40117582    -0.74300
Al9        Al  0.85181901  0.21249814  0.44245731     1.90100
O10         O  0.82265173  0.24018730  0.48561348    -0.73400
O11         O  0.86157318  0.26701595  0.43922121    -0.73200
O12         O  0.84626536  0.26141255  0.52340128    -0.78900
O13         O  0.88241046  0.25984283  0.48837352    -0.77100
O14         O  0.85723766  0.23333696  0.46943240    -1.13200
O15         O  0.89221503  0.22885434  0.45351194    -0.72400
C16         C  0.89127160  0.21438792  0.43132728     0.98300
C17         C  0.81631747  0.22547735  0.47154418     0.94700
Al18       Al  0.84293751  0.25245845  0.46293591     1.55600
O19         O  0.85164146  0.19923366  0.49748733    -0.77000
C20         C  0.87665920  0.26992367  0.45714743     0.98900
C21         C  0.84357802  0.23725801  0.37225913     0.93800
O22         O  0.85168205  0.22321864  0.38483824    -0.82300
O23         O  0.62820981  0.21161262  0.60782989    -0.81800
C24         C  0.65199450  0.25854597  0.46865573     0.97600
O25         O  0.63588350  0.25368084  0.47559480    -0.70900
O26         O  0.63299905  0.21854939  0.47795175    -0.74500
Al27       Al  0.62547438  0.23685279  0.51767602     1.49000
C28         C  0.63699204  0.20255972  0.48823968     0.92800
O29         O  0.67366642  0.21288828  0.54916852    -0.80700
O30         O  0.65551884  0.25280156  0.62336341    -0.74300
Al31       Al  0.65064378  0.21352170  0.57720019     1.90100
O32         O  0.68124724  0.24087887  0.56388989    -0.73400
O33         O  0.64005586  0.27159379  0.56008503    -0.73200
O34         O  0.66385308  0.25690051  0.49875816    -0.78900
O35         O  0.61557059  0.25539827  0.55354228    -0.77100
O36         O  0.64502187  0.23472165  0.55189785    -1.13200
O37         O  0.61084343  0.22055129  0.55222617    -0.72400
C38         C  0.61277521  0.21305202  0.59029044     0.98300
C39         C  0.68544032  0.22511795  0.55158707     0.94700
Al40       Al  0.65903955  0.25391509  0.56090552     1.55600
O41         O  0.64219597  0.19884050  0.52790055    -0.77000
C42         C  0.62314951  0.27007976  0.56336563     0.98900
C43         C  0.65811451  0.23936243  0.64857495     0.93800
O44         O  0.66007567  0.22366613  0.63249497    -0.82300
O45         O  0.86481587  0.29834493  0.05226711    -0.81800
C46         C  0.84314493  0.30523331  0.87087661     0.97600
O47         O  0.83627986  0.29459096  0.89957644    -0.70900
O48         O  0.86166793  0.27453661  0.93417421    -0.74500
Al49       Al  0.84332087  0.28883710  0.96034171     1.49000
C50         C  0.87668719  0.27092680  0.95174906     0.92800
O51         O  0.89278149  0.31174214  0.95181893    -0.80700
O52         O  0.85332142  0.34178982  0.99775206    -0.74300
Al53       Al  0.87778705  0.30509767  0.00022633     1.90100
O54         O  0.87743379  0.33528209  0.92828518    -0.73400
O55         O  0.82669279  0.32717686  0.95132686    -0.73200
O56         O  0.85163423  0.31898770  0.88375140    -0.78900
O57         O  0.82360553  0.30100655  0.98556273    -0.77100
O58         O  0.85786953  0.30772061  0.96760217    -1.13200
O59         O  0.84707442  0.27875706  0.01981580    -0.72400
C60         C  0.85394432  0.28532428  0.05526552     0.98300
C61         C  0.89207493  0.32646256  0.93058017     0.94700
Al62       Al  0.85262141  0.32901345  0.94216630     1.55600
O63         O  0.88260501  0.28045342  0.98384385    -0.77000
C64         C  0.81749176  0.31631791  0.97526615     0.98900
C65         C  0.86635492  0.34147694  0.02499842     0.93800
O66         O  0.87776954  0.32887106  0.02400552    -0.82300
O67         O  0.63731912  0.29333520  0.96898387    -0.81800
C68         C  0.65862327  0.29969689  0.15028216     0.97600
O69         O  0.66497395  0.28843300  0.12265316    -0.70900
O70         O  0.64031600  0.26838433  0.08500055    -0.74500
Al71       Al  0.65892724  0.28326051  0.06134223     1.49000
C72         C  0.62536836  0.26496722  0.06670579     0.92800
O73         O  0.60945858  0.30679648  0.07093105    -0.80700
O74         O  0.64960900  0.33619828  0.02277806    -0.74300
Al75       Al  0.62441120  0.30008068  0.02154540     1.90100
O76         O  0.62535026  0.33021937  0.09214741    -0.73400
O77         O  0.67584629  0.32157368  0.07114978    -0.73200
O78         O  0.65071415  0.31377662  0.13729698    -0.78900
O79         O  0.67936192  0.29537507  0.03871428    -0.77100
O80         O  0.64451990  0.30231388  0.05390847    -1.13200
O81         O  0.65587576  0.27414829  0.00149071    -0.72400
C82         C  0.64850749  0.28053560  0.96646609     0.98300
C83         C  0.61047332  0.32174548  0.09123680     0.94700
Al84       Al  0.65002086  0.32359895  0.07884162     1.55600
O85         O  0.61938915  0.27543191  0.03666400    -0.77000
C86         C  0.68571679  0.31042177  0.05034719     0.98900
C87         C  0.63566569  0.33680105  0.99857264     0.93800
O88         O  0.62438389  0.32407877  0.99892013    -0.82300
O89         O  0.52576998  0.39840769  0.80565540    -0.81800
C90         C  0.52891355  0.42573469  0.62822833     0.97600
O91         O  0.51832290  0.43114895  0.65881020    -0.70900
O92         O  0.49890212  0.40489449  0.69302665    -0.74500
Al93       Al  0.51402116  0.42271220  0.71921019     1.49000
C94         C  0.49581331  0.38948519  0.70953545     0.92800
O95         O  0.53702282  0.37379387  0.69796142    -0.80700
O96         O  0.56718835  0.41263095  0.74892528    -0.74300
Al97       Al  0.53140655  0.38716707  0.75045758     1.90100
O98         O  0.56015505  0.39027003  0.67676682    -0.73400
O99         O  0.55186317  0.43993336  0.70738853    -0.73200
O100        O  0.54272671  0.41671122  0.63802209    -0.78900
O101        O  0.52670660  0.44204609  0.74535213    -0.77100
O102        O  0.53304325  0.40814336  0.72146559    -1.13200
O103        O  0.50572497  0.41741672  0.77918496    -0.72400
C104        C  0.51311257  0.40941492  0.81214809     0.98300
C105        C  0.55133843  0.37562335  0.67535117     0.94700
Al106      Al  0.55372452  0.41443486  0.69484185     1.55600
O107        O  0.50664488  0.38264108  0.73745743    -0.77000
C108        C  0.54155676  0.44873575  0.73326492     0.98900
C109        C  0.56785266  0.39857734  0.77284586     0.93800
O110        O  0.55564400  0.38675378  0.77045468    -0.82300
O111        O  0.53564673  0.62936414  0.73609038    -0.81800
C112        C  0.53875580  0.60390372  0.91491922     0.97600
O113        O  0.52728478  0.59915497  0.88578390    -0.70900
O114        O  0.50810021  0.62464071  0.84827624    -0.74500
Al115      Al  0.52323091  0.60618016  0.82458177     1.49000
C116        C  0.50516813  0.63971142  0.82995742     0.92800
O117        O  0.54655455  0.65460705  0.84314663    -0.80700
O118        O  0.57686700  0.61581075  0.79080871    -0.74300
Al119      Al  0.54111879  0.64118560  0.79069031     1.90100
O120        O  0.56993742  0.63829107  0.86368563    -0.73400
O121        O  0.56148212  0.58854934  0.83497123    -0.73200
O122        O  0.55311959  0.61176222  0.90364738    -0.78900
O123        O  0.53527786  0.58585053  0.80161967    -0.77100
O124        O  0.54261083  0.62034222  0.82055802    -1.13200
O125        O  0.51551836  0.61041868  0.76383233    -0.72400
C126        C  0.52320786  0.61793719  0.73055248     0.98300
C127        C  0.56092263  0.65281077  0.86563183     0.94700
Al128      Al  0.56354559  0.61404610  0.84614531     1.55600
O129        O  0.51628208  0.64614067  0.80214436    -0.77000
C130        C  0.55021769  0.57929994  0.81300435     0.98900
C131        C  0.57792890  0.63040644  0.76889805     0.93800
O132        O  0.56551180  0.64193915  0.77125397    -0.82300
O133        O  0.43560738  0.39428507  0.18601266    -0.81800
C134        C  0.48834500  0.41249113  0.30947954     0.97600
O135        O  0.47523378  0.40188043  0.30576911    -0.70900
O136        O  0.44334708  0.39239881  0.27989191    -0.74500
Al137      Al  0.46681606  0.39066996  0.25339689     1.49000
C138        C  0.43186995  0.40497185  0.28284712     0.92800
O139        O  0.44780546  0.44399814  0.20782278    -0.80700
O140        O  0.47930808  0.43262308  0.15581832    -0.74300
Al141      Al  0.44418858  0.41831343  0.19962850     1.90100
O142        O  0.47383024  0.44530219  0.24229336    -0.73400
O143        O  0.49880754  0.40643494  0.18918320    -0.73200
O144        O  0.49471777  0.42050438  0.27525916    -0.78900
O145        O  0.49076145  0.38445407  0.23414129    -0.77100
O146        O  0.46533346  0.41137529  0.22320764    -1.13200
O147        O  0.45840683  0.37693221  0.20419664    -0.72400
C148        C  0.44344254  0.37911656  0.18491747     0.98300
C149        C  0.45944485  0.45276264  0.23001144     0.94700
Al150      Al  0.48493911  0.42509535  0.21623148     1.55600
O151        O  0.43222707  0.41830937  0.25629888    -0.77000
C152        C  0.50147767  0.39087011  0.20508572     0.98900
C153        C  0.46808501  0.42624570  0.12798736     0.93800
O154        O  0.45385043  0.41861188  0.14113221    -0.82300
O155        O  0.45245019  0.64087090  0.37122431    -0.81800
C156        C  0.49584213  0.61199426  0.23152329     0.97600
O157        O  0.49230401  0.62846956  0.23795185    -0.70900
O158        O  0.45765531  0.63265628  0.24166481    -0.74500
Al159      Al  0.47645436  0.64023995  0.27938472     1.49000
C160        C  0.44153570  0.62996674  0.25327980     0.92800
O161        O  0.44985461  0.59444889  0.31901983    -0.80700
O162        O  0.49222410  0.61069558  0.38604526    -0.74300
Al163      Al  0.45253938  0.61777682  0.34358680     1.90100
O164        O  0.47741412  0.58491014  0.33081232    -0.73400
O165        O  0.51079043  0.62428721  0.31949253    -0.73200
O166        O  0.49347768  0.60045428  0.26223951    -0.78900
O167        O  0.49570987  0.64963846  0.31372085    -0.77100
O168        O  0.47360419  0.62144570  0.31583298    -1.13200
O169        O  0.46110681  0.65640354  0.31196929    -0.72400
C170        C  0.45403625  0.65572335  0.35071398     0.98300
C171        C  0.46118931  0.58184795  0.32027585     0.94700
Al172      Al  0.49193734  0.60627830  0.32416131     1.55600
O173        O  0.43782989  0.62610892  0.29392694    -0.77000
C174        C  0.51018220  0.64135165  0.32162151     0.98900
C175        C  0.47917382  0.60949109  0.41295440     0.93800
O176        O  0.46303696  0.60886440  0.39905544    -0.82300
O177        O  0.38300082  0.70981036  0.92514808    -0.81800
C178        C  0.36250095  0.75888661  0.06399449     0.97600
O179        O  0.37816861  0.75339816  0.05464005    -0.70900
O180        O  0.37878417  0.71801340  0.05454937    -0.74500
Al181      Al  0.38685909  0.73567923  0.01317020     1.49000
C182        C  0.37350352  0.70227153  0.04513791     0.92800
O183        O  0.33693198  0.71318795  0.98186538    -0.80700
O184        O  0.35522589  0.75266953  0.90958169    -0.74300
Al185      Al  0.36039630  0.71309582  0.95544112     1.90100
O186        O  0.33065480  0.74186612  0.97289214    -0.73400
O187        O  0.37312882  0.77070299  0.97047141    -0.73200
O188        O  0.34998357  0.75722884  0.03559821    -0.78900
O189        O  0.39705762  0.75344155  0.97454739    -0.77100
O190        O  0.36680796  0.73414473  0.98036361    -1.13200
O191        O  0.40039787  0.71832296  0.98054027    -0.72400
C192        C  0.39825383  0.71003565  0.94392831     0.98300
C193        C  0.32570624  0.72595759  0.98160073     0.94700
Al194      Al  0.35335114  0.75389394  0.97269643     1.55600
O195        O  0.36783038  0.69859946  0.00587721    -0.77000
C196        C  0.38986895  0.76837910  0.96485798     0.98900
C197        C  0.35262940  0.73928077  0.88429697     0.93800
O198        O  0.35189668  0.72344583  0.90023059    -0.82300
O199        O  0.13809222  0.71451640  0.12644228    -0.81800
C200        C  0.15816797  0.75993521  0.97916510     0.97600
O201        O  0.14245163  0.75464339  0.98902628    -0.70900
O202        O  0.13978547  0.71966800  0.99618396    -0.74500
Al203      Al  0.13329443  0.73867653  0.03471610     1.49000
C204        C  0.14412639  0.70386393  0.00769817     0.92800
O205        O  0.18256460  0.71520018  0.06230205    -0.80700
O206        O  0.16657109  0.75633609  0.13379831    -0.74300
Al207      Al  0.15995783  0.71629334  0.09277869     1.90100
O208        O  0.19020259  0.74361447  0.07020885    -0.73400
O209        O  0.14892895  0.77402842  0.07169566    -0.73200
O210        O  0.17080537  0.75870084  0.00736075    -0.78900
O211        O  0.12425758  0.75792499  0.06991122    -0.77100
O212        O  0.15371080  0.73710812  0.06604760    -1.13200
O213        O  0.11961244  0.72302083  0.07281127    -0.72400
C214        C  0.12233786  0.71562954  0.11060662     0.98300
C215        C  0.19425624  0.72754723  0.06057498     0.94700
Al216      Al  0.16793300  0.75647698  0.07053534     1.55600
O217        O  0.15068254  0.70091788  0.04634453    -0.77000
C218        C  0.13207608  0.77277770  0.07657257     0.98900
C219        C  0.16972274  0.74330345  0.15997462     0.93800
O220        O  0.17027435  0.72728235  0.14537104    -0.82300
O221        O  0.37748454  0.79060360  0.56292239    -0.81800
C222        C  0.35286961  0.79983960  0.38501894     0.97600
O223        O  0.34679111  0.78870435  0.41352938    -0.70900
O224        O  0.37369556  0.76934852  0.44336254    -0.74500
Al225      Al  0.35495536  0.78212549  0.47256383     1.49000
C226        C  0.38943970  0.76694910  0.45815775     0.92800
O227        O  0.40303611  0.80933180  0.46439551    -0.80700
O228        O  0.36133927  0.83459062  0.51481101    -0.74300
Al229      Al  0.38894873  0.80003242  0.51183395     1.90100
O230        O  0.38542787  0.83175900  0.44475435    -0.73400
O231        O  0.33609403  0.81889154  0.46603569    -0.73200
O232        O  0.36131724  0.81363779  0.39825722    -0.78900
O233        O  0.33482611  0.79277498  0.50076289    -0.77100
O234        O  0.36852673  0.80171833  0.48087507    -1.13200
O235        O  0.36003839  0.77092522  0.52973619    -0.72400
C236        C  0.36768433  0.77682051  0.56481070     0.98300
C237        C  0.40073776  0.82428945  0.44515667     0.94700
Al238      Al  0.36157734  0.82292296  0.45778387     1.55600
O239        O  0.39550919  0.77660213  0.48987643    -0.77000
C240        C  0.32746795  0.80740439  0.48933065     0.98900
C241        C  0.37419589  0.83461474  0.54265831     0.93800
O242        O  0.38667036  0.82302214  0.54040682    -0.82300
O243        O  0.14469190  0.79649635  0.48130926    -0.81800
C244        C  0.16867468  0.80377782  0.65973979     0.97600
O245        O  0.17429665  0.79224744  0.63173069    -0.70900
O246        O  0.14774882  0.77313223  0.59935031    -0.74500
Al247      Al  0.16676269  0.78634019  0.57178356     1.49000
C248        C  0.13252396  0.77027503  0.58200391     0.92800
O249        O  0.11898172  0.81304982  0.58203404    -0.80700
O250        O  0.16049554  0.83895878  0.52877407    -0.74300
Al251      Al  0.13289942  0.80466069  0.53307830     1.90100
O252        O  0.13637195  0.83582748  0.59956700    -0.73400
O253        O  0.18593829  0.82331749  0.57823496    -0.73200
O254        O  0.16082508  0.81793428  0.64633425    -0.78900
O255        O  0.18728521  0.79694850  0.54551530    -0.77100
O256        O  0.15338788  0.80608003  0.56384800    -1.13200
O257        O  0.16210628  0.77624124  0.51301412    -0.72400
C258        C  0.15483150  0.78298956  0.47818805     0.98300
C259        C  0.12104163  0.82829557  0.60025777     0.94700
Al260      Al  0.16040268  0.82724095  0.58654703     1.55600
O261        O  0.12658419  0.78061232  0.55153122    -0.77000
C262        C  0.19473984  0.81156199  0.55651583     0.98900
C263        C  0.14696861  0.83952262  0.50288789     0.93800
O264        O  0.13438182  0.82815233  0.50682238    -0.82300
O265        O  0.06091608  0.39843717  0.86485263    -0.81800
C266        C  0.01452027  0.41909216  0.72101516     0.97600
O267        O  0.02012001  0.40337819  0.72991378    -0.70900
O268        O  0.05515984  0.40161869  0.73548604    -0.74500
Al269      Al  0.03644764  0.39398893  0.77400490     1.49000
C270        C  0.07081184  0.40648590  0.74667766     0.92800
O271        O  0.05795530  0.44406388  0.80586869    -0.80700
O272        O  0.01790828  0.42462000  0.87688832    -0.74300
Al273      Al  0.05800824  0.42074618  0.83367634     1.90100
O274        O  0.02946366  0.45018052  0.81675095    -0.73400
O275        O  0.00070751  0.40772726  0.81283604    -0.73200
O276        O  0.01497153  0.43133675  0.75060346    -0.78900
O277        O  0.01759643  0.38364401  0.80867147    -0.77100
O278        O  0.03738549  0.41401481  0.80711187    -1.13200
O279        O  0.05255398  0.38028992  0.81048015    -0.72400
C280        C  0.05992865  0.38280215  0.84827539     0.98300
C281        C  0.04527944  0.45537523  0.80809600     0.94700
Al282      Al  0.01750930  0.42735954  0.81374753     1.55600
O283        O  0.07356260  0.41295616  0.78551363    -0.77000
C284        C  0.00256718  0.39084270  0.81647615     0.98900
C285        C  0.03086761  0.42777614  0.90318451     0.93800
O286        O  0.04677035  0.42946930  0.88815572    -0.82300
O287        O  0.06677029  0.64506114  0.67847419    -0.81800
C288        C  0.01736621  0.62388554  0.81505434     0.97600
O289        O  0.02248518  0.63976709  0.80604931    -0.70900
O290        O  0.05736838  0.64177867  0.80539596    -0.74500
Al291      Al  0.03971657  0.64936147  0.76441738     1.49000
C292        C  0.07290535  0.63575958  0.79770596     0.92800
O293        O  0.06174667  0.59909913  0.73481237    -0.80700
O294        O  0.02312438  0.61935738  0.66091407    -0.74300
Al295      Al  0.06261207  0.62254606  0.70803496     1.90100
O296        O  0.03367187  0.59303699  0.71964384    -0.73400
O297        O  0.00487130  0.63530114  0.72436877    -0.73200
O298        O  0.01902270  0.61154181  0.78595035    -0.78900
O299        O  0.02164130  0.65946875  0.72664972    -0.77100
O300        O  0.04154679  0.62932063  0.73183215    -1.13200
O301        O  0.05664262  0.66323046  0.73090993    -0.72400
C302        C  0.06563803  0.66060622  0.69548929     0.98300
C303        C  0.04908349  0.58785102  0.73186779     0.94700
Al304      Al  0.02188727  0.61589418  0.72329902     1.55600
O305        O  0.07687991  0.62952127  0.75921278    -0.77000
C306        C  0.00661764  0.65214321  0.71929262     0.98900
C307        C  0.03659061  0.61710834  0.63563587     0.93800
O308        O  0.05223330  0.61456270  0.65168581    -0.82300
O309        O  0.97662039  0.40151024  0.22590636    -0.81800
C310        C  0.96901771  0.42636013  0.40470961     0.97600
O311        O  0.98072207  0.43187644  0.37668116    -0.70900
O312        O  0.99925206  0.40524013  0.34363144    -0.74500
Al313      Al  0.98650343  0.42430021  0.31626533     1.49000
C314        C  0.00153526  0.38960769  0.32818070     0.92800
O315        O  0.95836065  0.37716328  0.32805288    -0.80700
O316        O  0.93440183  0.41967623  0.27425845    -0.74300
Al317      Al  0.96747612  0.39054687  0.27857960     1.90100
O318        O  0.93616302  0.39530070  0.34462526    -0.73400
O319        O  0.95040711  0.44441746  0.32458747    -0.73200
O320        O  0.95482759  0.41882041  0.39102273    -0.78900
O321        O  0.97630808  0.44497580  0.28989746    -0.77100
O322        O  0.96661344  0.41127826  0.30872847    -1.13200
O323        O  0.99650375  0.41938001  0.25748362    -0.72400
C324        C  0.99026396  0.41154747  0.22290035     0.98300
C325        C  0.94337498  0.37986874  0.34696442     0.94700
Al326      Al  0.94570926  0.41895002  0.33170900     1.55600
O327        O  0.99114895  0.38348366  0.29812831    -0.77000
C328        C  0.96226760  0.45299132  0.30266552     0.98900
C329        C  0.93333953  0.40625074  0.24826084     0.93800
O330        O  0.94413251  0.39310257  0.25187853    -0.82300
O331        O  0.98591786  0.63514933  0.31190549    -0.81800
C332        C  0.97802149  0.61032172  0.13358683     0.97600
O333        O  0.98921148  0.60477057  0.16248720    -0.70900
O334        O  0.00915752  0.63121307  0.19358590    -0.74500
Al335      Al  0.99523473  0.61281267  0.22155903     1.49000
C336        C  0.01274341  0.64626760  0.21121011     0.92800
O337        O  0.97061360  0.66183899  0.21092771    -0.80700
O338        O  0.94226787  0.62183221  0.26073804    -0.74300
Al339      Al  0.97822427  0.64738057  0.25977922     1.90100
O340        O  0.94765925  0.64531969  0.18949260    -0.73400
O341        O  0.95744123  0.59522243  0.21513480    -0.73200
O342        O  0.96444117  0.61931325  0.14556913    -0.78900
O343        O  0.98368533  0.59306892  0.24872407    -0.77100
O344        O  0.97602350  0.62703028  0.22860472    -1.13200
O345        O  0.00572300  0.61743821  0.27940967    -0.72400
C346        C  0.99926224  0.62474900  0.31423682     0.98300
C347        C  0.95576895  0.66040034  0.19066469     0.94700
Al348      Al  0.95476491  0.62089645  0.20458143     1.55600
O349        O  0.00252895  0.65261898  0.24146782    -0.77000
C350        C  0.96873652  0.58626830  0.23822814     0.98900
C351        C  0.94239631  0.63496837  0.28772614     0.93800
O352        O  0.95461607  0.64681686  0.28565304    -0.82300
O353        O  0.55875632  0.13900957  0.16147125    -0.81800
C354        C  0.51082746  0.11608630  0.29949140     0.97600
O355        O  0.51492817  0.13209876  0.28914230    -0.70900
O356        O  0.55008098  0.13452589  0.29068774    -0.74500
Al357      Al  0.53248308  0.14180591  0.24851530     1.49000
C358        C  0.56623135  0.13051945  0.28183141     0.92800
O359        O  0.55745547  0.09337914  0.21951954    -0.80700
O360        O  0.51773134  0.10949221  0.14490849    -0.74300
Al361      Al  0.55658802  0.11650332  0.19212481     1.90100
O362        O  0.52956081  0.08526716  0.20759330    -0.73400
O363        O  0.49844921  0.12634372  0.20535313    -0.73200
O364        O  0.51293154  0.10363473  0.27094038    -0.78900
O365        O  0.51453815  0.15111473  0.20955011    -0.77100
O366        O  0.53517274  0.12186783  0.21598565    -1.13200
O367        O  0.54954400  0.15632181  0.21614516    -0.72400
C368        C  0.55797724  0.15438756  0.17943973     0.98300
C369        C  0.54555946  0.08127597  0.21809176     0.94700
Al370      Al  0.51626757  0.10736325  0.20779444     1.55600
O371        O  0.57043011  0.12501626  0.24279264    -0.77000
C372        C  0.49984109  0.14330559  0.20090641     0.98900
C373        C  0.53131081  0.10719619  0.11995611     0.93800
O374        O  0.54700861  0.10710748  0.13661638    -0.82300
O375        O  0.56826514  0.89383244  0.36282115    -0.81800
C376        C  0.51903971  0.91468307  0.22393557     0.97600
O377        O  0.52524094  0.89924427  0.23273708    -0.70900
O378        O  0.56056975  0.89893623  0.23348605    -0.74500
Al379      Al  0.54282165  0.89034714  0.27395626     1.49000
C380        C  0.57616847  0.90436470  0.24379749     0.92800
O381        O  0.56418838  0.94034445  0.30849700    -0.80700
O382        O  0.52476139  0.92095344  0.37857055    -0.74300
Al383      Al  0.56465695  0.91668282  0.33374822     1.90100
O384        O  0.53546470  0.94605378  0.31713772    -0.73400
O385        O  0.50748003  0.90330633  0.31605723    -0.73200
O386        O  0.52057912  0.92716893  0.25256959    -0.78900
O387        O  0.52500613  0.87952049  0.31129729    -0.77100
O388        O  0.54386420  0.91014866  0.30783385    -1.13200
O389        O  0.56012664  0.87670695  0.30656711    -0.72400
C390        C  0.56781949  0.87854541  0.34409023     0.98300
C391        C  0.55129569  0.95140355  0.30977382     0.94700
Al392      Al  0.52386248  0.92327384  0.31550328     1.55600
O393        O  0.57953748  0.90991816  0.28334706    -0.77000
C394        C  0.51001222  0.88655788  0.32081640     0.98900
C395        C  0.53791256  0.92387821  0.40443853     0.93800
O396        O  0.55385469  0.92458590  0.38933356    -0.82300
O397        O  0.48967050  0.12937415  0.79292836    -0.81800
C398        C  0.47307604  0.10592663  0.61987025     0.97600
O399        O  0.48675271  0.10973789  0.64308896    -0.70900
O400        O  0.50666400  0.12571016  0.70325961    -0.74500
Al401      Al  0.48909358  0.10673307  0.70563282     1.49000
C402        C  0.50543277  0.14270804  0.70283346     0.92800
O403        O  0.45644398  0.15501795  0.71946930    -0.80700
O404        O  0.43458697  0.12454558  0.74350452    -0.74300
Al405      Al  0.47280013  0.14017266  0.75253956     1.90100
O406        O  0.44686186  0.13819297  0.66333908    -0.73400
O407        O  0.44802208  0.09242884  0.72252554    -0.73200
O408        O  0.45766371  0.10542937  0.63810779    -0.78900
O409        O  0.47575003  0.08466142  0.70519547    -0.77100
O410        O  0.47020187  0.12085905  0.71737841    -1.13200
O411        O  0.49372288  0.10195164  0.76703903    -0.72400
C412        C  0.49514035  0.11336785  0.79818894     0.98300
C413        C  0.44842670  0.15346893  0.68200207     0.94700
Al414      Al  0.44863487  0.11553989  0.69390230     1.55600
O415        O  0.49128573  0.15035413  0.71640936    -0.77000
C416        C  0.46004798  0.08050566  0.71804462     0.98900
C417        C  0.43832583  0.12984131  0.78287979     0.93800
O418        O  0.45455307  0.13265443  0.79345401    -0.82300
O419        O  0.49011108  0.90364251  0.72642275    -0.81800
C420        C  0.47761453  0.92456333  0.90650350     0.97600
O421        O  0.48915960  0.93106416  0.87970689    -0.70900
O422        O  0.51004311  0.90576512  0.84806121    -0.74500
Al423      Al  0.49663905  0.92459684  0.82055877     1.49000
C424        C  0.51347307  0.89050256  0.83148018     0.92800
O425        O  0.47187830  0.87473898  0.82145869    -0.80700
O426        O  0.44521262  0.91623020  0.77302392    -0.74300
Al427      Al  0.48095578  0.89043429  0.77589793     1.90100
O428        O  0.44846629  0.89108652  0.84069809    -0.73400
O429        O  0.45863224  0.94136331  0.82564890    -0.73200
O430        O  0.46449347  0.91554925  0.89154507    -0.78900
O431        O  0.48534362  0.94507982  0.79500073    -0.77100
O432        O  0.47786809  0.91021858  0.80906815    -1.13200
O433        O  0.50845303  0.92151196  0.76344973    -0.72400
C434        C  0.50284348  0.91485148  0.72692613     0.98300
C435        C  0.45651623  0.87606004  0.83932103     0.94700
Al436      Al  0.45608071  0.91562453  0.83100084     1.55600
O437        O  0.50449197  0.88473766  0.79823705    -0.77000
C438        C  0.47014462  0.95124950  0.80609950     0.98900
C439        C  0.44601409  0.90368878  0.74437688     0.93800
O440        O  0.45819962  0.89182902  0.74647856    -0.82300
O441        O  0.88181212  0.82601625  0.10893783    -0.81800
C442        C  0.85562761  0.77714578  0.97792137     0.97600
O443        O  0.87179323  0.78176114  0.98424581    -0.70900
O444        O  0.87420272  0.81695492  0.98018555    -0.74500
Al445      Al  0.88248158  0.79940075  0.02202708     1.49000
C446        C  0.87082761  0.83319660  0.98957198     0.92800
O447        O  0.83508566  0.82436024  0.05562392    -0.80700
O448        O  0.85318235  0.78558499  0.13306452    -0.74300
Al449      Al  0.85861285  0.82387314  0.08125569     1.90100
O450        O  0.82734176  0.79662114  0.07298848    -0.73400
O451        O  0.86852418  0.76565198  0.07153570    -0.73200
O452        O  0.84410548  0.77909226  0.00878411    -0.78900
O453        O  0.89292277  0.78166797  0.05981821    -0.77100
O454        O  0.86351949  0.80222590  0.05808001    -1.13200
O455        O  0.89757308  0.81639891  0.05139937    -0.72400
C456        C  0.89669132  0.82470904  0.08835137     0.98300
C457        C  0.82319302  0.81229239  0.05968191     0.94700
Al458      Al  0.84945215  0.78332315  0.07060732     1.55600
O459        O  0.86634666  0.83743312  0.02941218    -0.77000
C460        C  0.88551456  0.76718823  0.07232322     0.98900
C461        C  0.85077740  0.79948263  0.15676566     0.93800
O462        O  0.84986747  0.81494093  0.13859794    -0.82300
O463        O  0.63498149  0.81961650  0.92387238    -0.81800
C464        C  0.65967036  0.77345687  0.06355931     0.97600
O465        O  0.64348370  0.77800246  0.05630980    -0.70900
O466        O  0.64028224  0.81297045  0.05226545    -0.74500
Al467      Al  0.63272640  0.79425578  0.01385540     1.49000
C468        C  0.64462406  0.82884452  0.04124758     0.92800
O469        O  0.68138496  0.81755201  0.97765960    -0.80700
O470        O  0.66141989  0.77706440  0.90859634    -0.74300
Al471      Al  0.65776813  0.81709882  0.95231513     1.90100
O472        O  0.68810639  0.78953676  0.96345755    -0.73400
O473        O  0.64732537  0.75910093  0.97538064    -0.73200
O474        O  0.67149143  0.77504884  0.03310264    -0.78900
O475        O  0.62277621  0.77524033  0.97921417    -0.77100
O476        O  0.65209897  0.79617953  0.97895891    -1.13200
O477        O  0.61786495  0.81016388  0.97951853    -0.72400
C478        C  0.61971005  0.81819567  0.94220438     0.98300
C479        C  0.69301769  0.80523608  0.97391251     0.94700
Al480      Al  0.66599094  0.77684739  0.97070835     1.55600
O481        O  0.65037314  0.83210579  0.00186175    -0.77000
C482        C  0.63047257  0.76042338  0.97141155     0.98900
C483        C  0.66316268  0.79029614  0.88214796     0.93800
O484        O  0.66579703  0.80615651  0.89670016    -0.82300
O485        O  0.87446452  0.75595646  0.48853831    -0.81800
C486        C  0.84803190  0.74059791  0.65797109     0.97600
O487        O  0.85144475  0.75421198  0.63378286    -0.70900
O488        O  0.86872223  0.77298780  0.57205699    -0.74500
Al489      Al  0.84962536  0.75551022  0.57052322     1.49000
C490        C  0.88562063  0.77162735  0.57601055     0.92800
O491        O  0.89771765  0.72166527  0.56357864    -0.80700
O492        O  0.86647022  0.70066459  0.53689847    -0.74300
Al493      Al  0.88379881  0.73860222  0.53025591     1.90100
O494        O  0.88010476  0.71264211  0.61860838    -0.73400
O495        O  0.83480839  0.71451732  0.55838266    -0.73200
O496        O  0.84808484  0.72484361  0.64154150    -0.78900
O497        O  0.82744385  0.74264971  0.57085330    -0.77100
O498        O  0.86375495  0.73631456  0.56275700    -1.13200
O499        O  0.84611762  0.75867649  0.50763755    -0.72400
C500        C  0.85853182  0.76059421  0.47899398     0.98300
C501        C  0.89546695  0.71351056  0.60050804     0.94700
Al502      Al  0.85782274  0.71497574  0.58685667     1.55600
O503        O  0.89337794  0.75678980  0.56846324    -0.77000
C504        C  0.82304618  0.72677822  0.56014667     0.98900
C505        C  0.87207888  0.70478908  0.49776342     0.93800
O506        O  0.87646637  0.72083217  0.48888045    -0.82300
O507        O  0.63880606  0.73974763  0.55517814    -0.81800
C508        C  0.66954694  0.73193705  0.38376257     0.97600
O509        O  0.67521408  0.74267943  0.41363005    -0.70900
O510        O  0.64874394  0.76329867  0.43984884    -0.74500
Al511      Al  0.66552667  0.74876255  0.47157940     1.49000
C512        C  0.63303537  0.76702370  0.45285497     0.92800
O513        O  0.61694112  0.72468183  0.44650297    -0.80700
O514        O  0.65463392  0.69656999  0.51026667    -0.74300
Al515      Al  0.62904426  0.73226228  0.49972485     1.90100
O516        O  0.63401652  0.70101601  0.43412945    -0.73400
O517        O  0.68271284  0.71091661  0.46761924    -0.73200
O518        O  0.66069686  0.71805638  0.39487083    -0.78900
O519        O  0.68412837  0.73677098  0.50314836    -0.77100
O520        O  0.65071690  0.72984135  0.47496440    -1.13200
O521        O  0.65889027  0.75886316  0.52857807    -0.72400
C522        C  0.64979181  0.75249046  0.56094573     0.98300
C523        C  0.61932510  0.70939411  0.42872102     0.94700
Al524      Al  0.65754945  0.70843510  0.45338027     1.55600
O525        O  0.62500934  0.75673920  0.48044019    -0.77000
C526        C  0.69105336  0.72185139  0.49275340     0.98900
C527        C  0.64006589  0.69655054  0.53244070     0.93800
O528        O  0.62824304  0.70853103  0.52528606    -0.82300
O529        O  0.37288050  0.32084308  0.61057205    -0.81800
C530        C  0.35204877  0.27412649  0.46905695     0.97600
O531        O  0.36801902  0.27869071  0.47844285    -0.70900
O532        O  0.37103631  0.31389474  0.48116598    -0.74500
Al533      Al  0.37745236  0.29531444  0.52204489     1.49000
C534        C  0.36627309  0.32979800  0.49076966     0.92800
O535        O  0.32827459  0.31948538  0.54890001    -0.80700
O536        O  0.34430810  0.27919681  0.62366125    -0.74300
Al537      Al  0.35097705  0.31864608  0.57805861     1.90100
O538        O  0.32046527  0.29129797  0.56003937    -0.73400
O539        O  0.36159606  0.26063077  0.56231953    -0.73200
O540        O  0.33953860  0.27556723  0.49752007    -0.78900
O541        O  0.38640871  0.27641146  0.55969057    -0.77100
O542        O  0.35705041  0.29749018  0.55349342    -1.13200
O543        O  0.39133889  0.31171433  0.55764258    -0.72400
C544        C  0.38844939  0.32027809  0.59369691     0.98300
C545        C  0.31641743  0.30734189  0.54999709     0.94700
Al546      Al  0.34269359  0.27831598  0.56033320     1.55600
O547        O  0.35989335  0.33323383  0.52934121    -0.77000
C548        C  0.37841080  0.26173146  0.56821245     0.98900
C549        C  0.34134585  0.29268490  0.64841144     0.93800
O550        O  0.34099323  0.30847461  0.63208630    -0.82300
O551        O  0.12785928  0.32749586  0.42118602    -0.81800
C552        C  0.15067925  0.27885220  0.55839636     0.97600
O553        O  0.13505073  0.28454848  0.55023698    -0.70900
O554        O  0.13431413  0.31963867  0.55008252    -0.74500
Al555      Al  0.12560851  0.30203183  0.51000581     1.49000
C556        C  0.13934612  0.33542353  0.54034652     0.92800
O557        O  0.17440367  0.32502406  0.47354256    -0.80700
O558        O  0.15546192  0.28514124  0.40390211    -0.74300
Al559      Al  0.15079582  0.32478225  0.44913262     1.90100
O560        O  0.18104527  0.29644766  0.46421912    -0.73400
O561        O  0.13908634  0.26723071  0.46687939    -0.73200
O562        O  0.16301899  0.28082363  0.52946170    -0.78900
O563        O  0.11495354  0.28417979  0.47286869    -0.77100
O564        O  0.14505891  0.30371642  0.47517933    -1.13200
O565        O  0.11140409  0.31907246  0.47864980    -0.72400
C566        C  0.11276917  0.32642264  0.44049238     0.98300
C567        C  0.18571857  0.31238377  0.47329690     0.94700
Al568      Al  0.15859412  0.28412482  0.46666160     1.55600
O569        O  0.14399290  0.33933581  0.50026306    -0.77000
C570        C  0.12230970  0.26944546  0.46225675     0.98900
C571        C  0.15729613  0.29845275  0.37781565     0.93800
O572        O  0.15855336  0.31436823  0.39292700    -0.82300
O573        O  0.36642708  0.24285453  0.97145630    -0.81800
C574        C  0.34310199  0.23409598  0.14901925     0.97600
O575        O  0.33586456  0.24494926  0.12141015    -0.70900
O576        O  0.36168046  0.26545417  0.08960603    -0.74500
Al577      Al  0.34350806  0.25148213  0.06134759     1.49000
C578        C  0.37709550  0.26875964  0.07367037     0.92800
O579        O  0.39233143  0.22671573  0.07206774    -0.80700
O580        O  0.35191040  0.19932935  0.01942025    -0.74300
Al581      Al  0.37822026  0.23478688  0.02330697     1.90100
O582        O  0.37598342  0.20306174  0.08954409    -0.73400
O583        O  0.32607245  0.21384192  0.06884560    -0.73200
O584        O  0.35128336  0.22021905  0.13560300    -0.78900
O585        O  0.32393599  0.23983411  0.03369421    -0.77100
O586        O  0.35781463  0.23240047  0.05375089    -1.13200
O587        O  0.34812036  0.26219536  0.00306187    -0.72400
C588        C  0.35597289  0.25609857  0.96835693     0.98300
C589        C  0.39092414  0.21132136  0.08974565     0.94700
Al590      Al  0.35170514  0.21090926  0.07671157     1.55600
O591        O  0.38352430  0.25885912  0.04299118    -0.77000
C592        C  0.31731075  0.22480854  0.04450033     0.98900
C593        C  0.36527069  0.19952049  0.99301406     0.93800
O594        O  0.37740001  0.21142621  0.99641569    -0.82300
O595        O  0.13591510  0.24510655  0.05565258    -0.81800
C596        C  0.16023313  0.23721023  0.87671534     0.97600
O597        O  0.16621501  0.24829350  0.90539966    -0.70900
O598        O  0.14071416  0.26846229  0.93887714    -0.74500
Al599      Al  0.15890545  0.25408199  0.96537446     1.49000
C600        C  0.12541030  0.27181951  0.95514599     0.92800
O601        O  0.10956397  0.22901760  0.95384992    -0.80700
O602        O  0.15027580  0.20162775  0.00462661    -0.74300
Al603      Al  0.12397403  0.23705832  0.00314064     1.90100
O604        O  0.12654373  0.20623247  0.93468836    -0.73400
O605        O  0.17609180  0.21652930  0.95561656    -0.73200
O606        O  0.15138538  0.22353970  0.88910625    -0.78900
O607        O  0.17888416  0.24215419  0.99105829    -0.77100
O608        O  0.14447431  0.23499955  0.97226811    -1.13200
O609        O  0.15477620  0.26411444  0.02378976    -0.72400
C610        C  0.14709959  0.25783525  0.05838194     0.98300
C611        C  0.11149070  0.21413080  0.93365712     0.94700
Al612      Al  0.15058302  0.21379063  0.94806760     1.55600
O613        O  0.11861018  0.26133240  0.98431738    -0.77000
C614        C  0.18565073  0.22753686  0.97752395     0.98900
C615        C  0.13709048  0.20147482  0.03156272     0.93800
O616        O  0.12491975  0.21339361  0.02929025    -0.82300
O617        O  0.93710120  0.14737561  0.83898012    -0.81800
C618        C  0.98855043  0.12480997  0.71619783     0.97600
O619        O  0.97519742  0.13537652  0.71756818    -0.70900
O620        O  0.94373729  0.14783232  0.74493013    -0.74500
Al621      Al  0.96760616  0.14852740  0.76903797     1.49000
C622        C  0.93116276  0.13633523  0.74524822     0.92800
O623        O  0.94686922  0.09696800  0.81983897    -0.80700
O624        O  0.97857528  0.10793779  0.87206190    -0.74300
Al625      Al  0.94419198  0.12280380  0.82678905     1.90100
O626        O  0.97320443  0.09422381  0.78674812    -0.73400
O627        O  0.99814190  0.13354242  0.83697094    -0.73200
O628        O  0.99482083  0.11823167  0.75235503    -0.78900
O629        O  0.99205537  0.15408952  0.78615185    -0.77100
O630        O  0.96540442  0.12860310  0.80226984    -1.13200
O631        O  0.96015066  0.16365754  0.81705122    -0.72400
C632        C  0.94539718  0.16236146  0.83800730     0.98300
C633        C  0.95834284  0.08757117  0.79867915     0.94700
Al634      Al  0.98455425  0.11462576  0.81126707     1.55600
O635        O  0.93193244  0.12264734  0.77048606    -0.77000
C636        C  0.00159738  0.14849452  0.81867537     0.98900
C637        C  0.96748336  0.11459747  0.89982889     0.93800
O638        O  0.95368767  0.12264084  0.88568268    -0.82300
O639        O  0.94337386  0.89553349  0.69363647    -0.81800
C640        C  0.99755372  0.91721496  0.80861126     0.97600
O641        O  0.98502410  0.90577768  0.80653872    -0.70900
O642        O  0.95313393  0.89487618  0.78478909    -0.74500
Al643      Al  0.97607933  0.89360977  0.75602563     1.49000
C644        C  0.94126049  0.90703538  0.78857113     0.92800
O645        O  0.95466158  0.94562195  0.70790131    -0.80700
O646        O  0.98528312  0.93446281  0.65400747    -0.74300
Al647      Al  0.95165164  0.91986494  0.70340078     1.90100
O648        O  0.98099923  0.94871574  0.73954722    -0.73400
O649        O  0.00630013  0.90975802  0.68791555    -0.73200
O650        O  0.00315500  0.92491123  0.77308350    -0.78900
O651        O  0.99972065  0.88789865  0.73491216    -0.77100
O652        O  0.97341008  0.91393000  0.72469389    -1.13200
O653        O  0.96716663  0.87898611  0.70843262    -0.72400
C654        C  0.95155394  0.88058340  0.69219968     0.98300
C655        C  0.96607972  0.95534991  0.72802249     0.94700
Al656      Al  0.99231698  0.92826579  0.71448509     1.55600
O657        O  0.94107725  0.92042540  0.76204694    -0.77000
C658        C  0.00941427  0.89430428  0.70378029     0.98900
C659        C  0.97356210  0.92778388  0.62786675     0.93800
O660        O  0.96000091  0.91953861  0.64326696    -0.82300
O661        O  0.02714678  0.13520716  0.21977984    -0.81800
C662        C  0.03535352  0.11292933  0.40017387     0.97600
O663        O  0.02444953  0.10631572  0.37189415    -0.70900
O664        O  0.00465162  0.13212034  0.33804368    -0.74500
Al665      Al  0.01831644  0.11342397  0.31150063     1.49000
C666        C  0.00163748  0.14753195  0.32168970     0.92800
O667        O  0.04410929  0.16230430  0.31827082    -0.80700
O668        O  0.07056490  0.12034926  0.27096087    -0.74300
Al669      Al  0.03564608  0.14751144  0.27096926     1.90100
O670        O  0.06698820  0.14539461  0.33846791    -0.73400
O671        O  0.05538443  0.09542109  0.32224752    -0.73200
O672        O  0.04904707  0.12156618  0.38692264    -0.78900
O673        O  0.02980282  0.09331319  0.28563446    -0.77100
O674        O  0.03755127  0.12741028  0.30337381    -1.13200
O675        O  0.00779548  0.11743176  0.25296364    -0.72400
C676        C  0.01394683  0.12458438  0.21741847     0.98300
C677        C  0.05921631  0.16056688  0.33705435     0.94700
Al678      Al  0.05871193  0.12117368  0.32778847     1.55600
O679        O  0.01170224  0.15368460  0.29072474    -0.77000
C680        C  0.04451676  0.08650963  0.29809225     0.98900
C681        C  0.07051664  0.13296991  0.24225399     0.93800
O682        O  0.05900698  0.14554256  0.24415721    -0.82300
O683        O  0.03051805  0.90431343  0.30917354    -0.81800
C684        C  0.03896724  0.92746502  0.12904190     0.97600
O685        O  0.02678911  0.93252375  0.15603662    -0.70900
O686        O  0.00736168  0.90683251  0.19118696    -0.74500
Al687      Al  0.02086041  0.92589136  0.21678160     1.49000
C688        C  0.00436871  0.89174971  0.20926686     0.92800
O689        O  0.04696432  0.87772169  0.20866000    -0.80700
O690        O  0.07355141  0.91904344  0.26080949    -0.74300
Al691      Al  0.03873654  0.89199798  0.25744141     1.90100
O692        O  0.06998488  0.89505013  0.19050040    -0.73400
O693        O  0.05825657  0.94473013  0.21076373    -0.73200
O694        O  0.05299397  0.91977826  0.14343370    -0.78900
O695        O  0.03152039  0.94671200  0.24099359    -0.77100
O696        O  0.04046138  0.91239014  0.22573917    -1.13200
O697        O  0.01084038  0.92205497  0.27600118    -0.72400
C698        C  0.01748027  0.91519078  0.31146816     0.98300
C699        C  0.06204369  0.87992160  0.18969384     0.94700
Al700      Al  0.06182521  0.91915318  0.20321050     1.55600
O701        O  0.01468796  0.88574017  0.23957894    -0.77000
C702        C  0.04625659  0.95395271  0.23028187     0.98900
C703        C  0.07441668  0.90511680  0.28543356     0.93800
O704        O  0.06235257  0.89312318  0.28295216    -0.82300
C705        C  0.04770772  0.04272674  0.23248583    -0.22500
C706        C  0.05235105  0.03062283  0.26699631     0.09500
C707        C  0.05620641  0.03716779  0.31067156     0.09900
C708        C  0.05439228  0.05570066  0.31950809    -0.17400
C709        C  0.04858885  0.06767736  0.28568821    -0.27800
C710        C  0.04578700  0.06123170  0.24125085     0.18200
C711        C  0.05105934  0.01103771  0.25787653     0.12200
C712        C  0.06166871  0.02448916  0.34811292    -0.12200
H713        H  0.05670784  0.06072826  0.35340146     0.12500
C714        C  0.04103669  0.07381503  0.20288548    -0.23000
H715        H  0.04494021  0.03754401  0.19894475     0.08100
C716        C  0.03447578  0.00199161  0.26268631     0.04500
C717        C  0.03356282  0.98345812  0.25395826    -0.20200
C718        C  0.04878931  0.97359352  0.23972411    -0.12500
C719        C  0.06545776  0.98287218  0.23434613     0.13200
C720        C  0.06634522  0.00148624  0.24382412    -0.23000
C721        C  0.01766650  0.01196239  0.27681963    -0.06000
H722        H  0.02067351  0.97672928  0.25780581     0.14700
C723        C  0.08238046  0.97347720  0.21883946    -0.16200
H724        H  0.07898814  0.00869309  0.24002943     0.09000
H725        H  0.04043119  0.06659914  0.17005471     0.06900
H726        H  0.05137449  0.08462203  0.20006558     0.08100
H727        H  0.02766099  0.08001565  0.20867537     0.07100
H728        H  0.07426580  0.01735531  0.33855398     0.02000
H729        H  0.05084884  0.01439106  0.35410687     0.02500
H730        H  0.06413509  0.03180143  0.38025661     0.06000
H731        H  0.00580955  0.00283235  0.27913327     0.05000
H732        H  0.01452166  0.02268766  0.25174212    -0.00800
H733        H  0.01973561  0.01823085  0.31046125     0.00700
H734        H  0.09409611  0.98282554  0.21772830     0.04300
H735        H  0.08045205  0.96809511  0.18419083     0.06300
H736        H  0.08577138  0.96231194  0.24247449     0.07100
C737        C  0.02871752  0.93254464  0.90449539    -0.22500
C738        C  0.01883117  0.92652797  0.94198586     0.09500
C739        C  0.00199840  0.91813610  0.93570697     0.09900
C740        C  0.99546290  0.91571165  0.89189897    -0.17400
C741        C  0.00535866  0.92133641  0.85373235    -0.27800
C742        C  0.02222022  0.93007448  0.86024507     0.18200
C743        C  0.02650008  0.92827228  0.98780565     0.12200
C744        C  0.99102930  0.91145444  0.97531184    -0.12200
H745        H  0.98247409  0.90920796  0.88763056     0.12500
C746        C  0.03368610  0.93644118  0.82125830    -0.23000
H747        H  0.04168330  0.93893311  0.90996683     0.08100
C748        C  0.03745782  0.91456389  0.00618328     0.04500
C749        C  0.04226214  0.91534472  0.05190874    -0.20200
C750        C  0.03621819  0.92945104  0.07977500    -0.12500
C751        C  0.02624700  0.94386256  0.06035624     0.13200
C752        C  0.02127722  0.94289968  0.01468555    -0.23000
C753        C  0.04339360  0.89871907  0.97798928    -0.06000
H754        H  0.04996463  0.90433461  0.06649938     0.14700
C755        C  0.02085715  0.96055772  0.08615127    -0.16200
H756        H  0.01301069  0.95349272  0.00006669     0.09000
H757        H  0.04659909  0.94243207  0.83295116     0.06900
H758        H  0.02640659  0.94700024  0.80180296     0.08100
H759        H  0.03698449  0.92487764  0.79889813     0.07100
H760        H  0.98762777  0.92293525  0.99780651     0.02000
H761        H  0.99885911  0.90127406  0.99468794     0.02500
H762        H  0.97821789  0.90503626  0.96433516     0.06000
H763        H  0.05182798  0.88913204  0.99770411     0.05000
H764        H  0.05144974  0.90358839  0.94876198    -0.00800
H765        H  0.03141890  0.89127100  0.96537519     0.00700
H766        H  0.02522631  0.97274321  0.06708643     0.04300
H767        H  0.02722689  0.96149044  0.11988735     0.06300
H768        H  0.00596788  0.96092440  0.09000995     0.07100
C769        C  0.01201309  0.92402631  0.43718745    -0.22500
C770        C  0.99329918  0.92581490  0.44064251     0.09500
C771        C  0.98260218  0.92560796  0.40118651     0.09900
C772        C  0.99089957  0.92250864  0.35927577    -0.17400
C773        C  0.00959351  0.91963545  0.35603578    -0.27800
C774        C  0.02032724  0.92100276  0.39546217     0.18200
C775        C  0.98558360  0.92703287  0.48651797     0.12200
C776        C  0.96251539  0.92859858  0.40220171    -0.12200
H777        H  0.98262881  0.92189877  0.32909820     0.12500
C778        C  0.04052736  0.91927958  0.39407927    -0.23000
H779        H  0.02012233  0.92450656  0.46768693     0.08100
C780        C  0.97817922  0.91170451  0.50806569     0.04500
C781        C  0.97334715  0.91278187  0.55372829    -0.20200
C782        C  0.97638781  0.92860367  0.57863709    -0.12500
C783        C  0.98333202  0.94411341  0.55669616     0.13200
C784        C  0.98777319  0.94313685  0.51068079    -0.23000
C785        C  0.97627680  0.89395978  0.48363923    -0.06000
H786        H  0.96813525  0.90087947  0.57073651     0.14700
C787        C  0.98597020  0.96170864  0.58137820    -0.16200
H788        H  0.99357288  0.95477442  0.49377431     0.09000
H789        H  0.04679240  0.92225502  0.42734186     0.06900
H790        H  0.04626672  0.92881018  0.36881424     0.08100
H791        H  0.04401302  0.90522048  0.38527496     0.07100
H792        H  0.95909205  0.94051596  0.38102693     0.02000
H793        H  0.95730505  0.93109793  0.43675125     0.02500
H794        H  0.95553517  0.91654534  0.38838369     0.06000
H795        H  0.97063312  0.88325920  0.50592917     0.05000
H796        H  0.98969145  0.88937293  0.47157400    -0.00800
H797        H  0.96710808  0.89554243  0.45430377     0.00700
H798        H  0.99039084  0.97266707  0.55816704     0.04300
H799        H  0.99648479  0.96021329  0.60776107     0.06300
H800        H  0.97307788  0.96592920  0.59726504     0.07100
C801        C  0.96890566  0.12440600  0.02646248    -0.22500
C802        C  0.98348353  0.11359777  0.03942574     0.09500
C803        C  0.99141854  0.10178570  0.00804043     0.09900
C804        C  0.98523216  0.10177097  0.96333073    -0.17400
C805        C  0.97129009  0.11336971  0.94910554    -0.27800
C806        C  0.96260154  0.12446944  0.98173268     0.18200
C807        C  0.99130368  0.11615230  0.08483450     0.12200
C808        C  0.00674857  0.08957186  0.02153461    -0.12200
H809        H  0.99175317  0.09298991  0.93907516     0.12500
C810        C  0.94716231  0.13691360  0.97005846    -0.23000
H811        H  0.96289584  0.13333904  0.05121021     0.08100
C812        C  0.00441194  0.12955723  0.09234062     0.04500
C813        C  0.01131565  0.13191453  0.13586794    -0.20200
C814        C  0.00564609  0.12107118  0.17241553    -0.12500
C815        C  0.99248890  0.10744554  0.16448466     0.13200
C816        C  0.98550687  0.10522622  0.12065425    -0.23000
C817        C  0.01116241  0.14136293  0.05428954    -0.06000
H818        H  0.02114231  0.14251003  0.14122211     0.14700
C819        C  0.98560981  0.09516906  0.20140911    -0.16200
H820        H  0.97542378  0.09494133  0.11417088     0.09000
H821        H  0.95156092  0.14706552  0.94464601     0.06900
H822        H  0.94221928  0.14442355  0.00005976     0.08100
H823        H  0.93565264  0.12894400  0.95673176     0.07100
H824        H  0.00228182  0.08039229  0.04908633     0.02000
H825        H  0.01832409  0.09776221  0.03357688     0.02500
H826        H  0.01144207  0.08115781  0.99282110     0.06000
H827        H  0.02155372  0.15110651  0.06596266     0.05000
H828        H  0.99980079  0.14917068  0.03961741    -0.00800
H829        H  0.01729007  0.13284740  0.02755737     0.00700
H830        H  0.97865744  0.10323878  0.22772948     0.04300
H831        H  0.99693243  0.08754055  0.21672241     0.06300
H832        H  0.97576217  0.08514178  0.18838242     0.07100
C833        C  0.02194382  0.11052147  0.62409801    -0.22500
C834        C  0.01200642  0.11462337  0.58524913     0.09500
C835        C  0.99427841  0.12125718  0.58930390     0.09900
C836        C  0.98697125  0.12404585  0.63238695    -0.17400
C837        C  0.99695395  0.12040800  0.67181038    -0.27800
C838        C  0.01469156  0.11327624  0.66744078     0.18200
C839        C  0.02053645  0.11271163  0.54033827     0.12200
C840        C  0.98321090  0.12580650  0.54806558    -0.12200
H841        H  0.97337434  0.12927608  0.63515353     0.12500
C842        C  0.02636726  0.10893216  0.70774767    -0.23000
H843        H  0.03554563  0.10540167  0.62035744     0.08100
C844        C  0.03187101  0.12632036  0.52279953     0.04500
C845        C  0.03735548  0.12541793  0.47753476    -0.20200
C846        C  0.03147561  0.11139294  0.44916553    -0.12500
C847        C  0.02098317  0.09715463  0.46775358     0.13200
C848        C  0.01576529  0.09798551  0.51329005    -0.23000
C849        C  0.03751126  0.14218939  0.55129478    -0.06000
H850        H  0.04549343  0.13626948  0.46366823     0.14700
C851        C  0.01514905  0.08107847  0.44015030    -0.16200
H852        H  0.00721711  0.08750280  0.52743573     0.09000
H853        H  0.02827087  0.12121125  0.72870117     0.06900
H854        H  0.03994120  0.10409741  0.69751357     0.08100
H855        H  0.02003613  0.09804254  0.72817816     0.07100
H856        H  0.98117492  0.11351489  0.52727476     0.02000
H857        H  0.99027922  0.13620680  0.52753523     0.02500
H858        H  0.96971936  0.13117229  0.55724383     0.06000
H859        H  0.04616620  0.15176671  0.53210502     0.05000
H860        H  0.04526483  0.13736624  0.58104372    -0.00800
H861        H  0.02539650  0.14962798  0.56306134     0.00700
H862        H  0.02707614  0.07474840  0.42393089     0.04300
H863        H  0.00529600  0.08528355  0.41397320     0.06300
H864        H  0.00845744  0.07064697  0.46138566     0.07100
C865        C  0.95117453  0.03689918  0.80877266    -0.22500
C866        C  0.95501803  0.03154072  0.76440885     0.09500
C867        C  0.95770058  0.04473938  0.73064725     0.09900
C868        C  0.95772341  0.06304602  0.74271524    -0.17400
C869        C  0.95484816  0.06846752  0.78760919    -0.27800
C870        C  0.95111475  0.05522447  0.82100142     0.18200
C871        C  0.95778226  0.01209924  0.75495667     0.12200
C872        C  0.96080261  0.03947354  0.68209961    -0.12200
H873        H  0.96050772  0.07320921  0.71716870     0.12500
C874        C  0.94816151  0.05963189  0.87019005    -0.23000
H875        H  0.94905902  0.02665495  0.83450366     0.08100
C876        C  0.97517424  0.00445218  0.75633538     0.04500
C877        C  0.97732711  0.98601719  0.74718916    -0.20200
C878        C  0.96249386  0.97483978  0.73708126    -0.12500
C879        C  0.94496189  0.98260200  0.73629445     0.13200
C880        C  0.94289592  0.00115420  0.74521845    -0.23000
C881        C  0.99146240  0.01571249  0.76809981    -0.06000
H882        H  0.99079548  0.98033725  0.74792184     0.14700
C883        C  0.92828958  0.97154302  0.72714570    -0.16200
H884        H  0.92958667  0.00720137  0.74467750     0.09000
H885        H  0.95839347  0.05250254  0.89101067     0.06900
H886        H  0.93453898  0.05497014  0.88059038     0.08100
H887        H  0.94925188  0.07418618  0.87797665     0.07100
H888        H  0.94903023  0.03168520  0.66957536     0.02000
H889        H  0.97308279  0.03100942  0.67917550     0.02500
H890        H  0.96257303  0.05149874  0.66000062     0.06000
H891        H  0.00403808  0.00756837  0.76806108     0.05000
H892        H  0.98975529  0.02157694  0.80232937    -0.00800
H893        H  0.99313898  0.02682707  0.74323656     0.00700
H894        H  0.91580974  0.97974585  0.73009557     0.04300
H895        H  0.92732365  0.96030420  0.75196337     0.06300
H896        H  0.92872874  0.96607594  0.69227615     0.07100
C897        C  0.09345656  0.14335434  0.13183931    -0.22500
C898        C  0.11127661  0.14562303  0.14642335     0.09500
C899        C  0.11621076  0.13994902  0.19033976     0.09900
C900        C  0.10273495  0.13396992  0.22027964    -0.17400
C901        C  0.08454941  0.13397719  0.20716389    -0.27800
C902        C  0.07999518  0.13767981  0.16175235     0.18200
C903        C  0.12259151  0.15824890  0.11990680     0.12200
C904        C  0.13550885  0.14092357  0.20600784    -0.12200
H905        H  0.10620794  0.13076357  0.25497027     0.12500
C906        C  0.06083194  0.13651290  0.14514509    -0.23000
H907        H  0.08970304  0.14778720  0.09819649     0.08100
C908        C  0.12810602  0.15458930  0.07517412     0.04500
C909        C  0.13447871  0.16884355  0.04800534    -0.20200
C910        C  0.13496102  0.18663185  0.06438627    -0.12500
C911        C  0.13055906  0.18997921  0.11009542     0.13200
C912        C  0.12444908  0.17575649  0.13714531    -0.23000
C913        C  0.12673096  0.13584811  0.05578091    -0.06000
H914        H  0.13784240  0.16631934  0.01291063     0.14700
C915        C  0.13172863  0.20839464  0.13135511    -0.16200
H916        H  0.12001277  0.17860772  0.17134810     0.09000
H917        H  0.05995270  0.13846273  0.10797807     0.06900
H918        H  0.05259196  0.14721529  0.16112807     0.08100
H919        H  0.05512087  0.12302455  0.15336747     0.07100
H920        H  0.14035117  0.15510071  0.20565720     0.02000
H921        H  0.14412007  0.13271586  0.18324356     0.02500
H922        H  0.13705604  0.13562658  0.24094871     0.06000
H923        H  0.13196810  0.13531309  0.02062990     0.05000
H924        H  0.11247452  0.13132613  0.05514359    -0.00800
H925        H  0.13472904  0.12633412  0.07677268     0.00700
H926        H  0.11804378  0.21303273  0.14117323     0.04300
H927        H  0.13784146  0.21852931  0.10862747     0.06300
H928        H  0.14028271  0.20765760  0.16209385     0.07100
C929        C  0.08065640  0.17998635  0.87438948    -0.22500
C930        C  0.06431145  0.18937052  0.87425396     0.09500
C931        C  0.06363372  0.20713943  0.89103257     0.09900
C932        C  0.07937798  0.21507478  0.90841395    -0.17400
C933        C  0.09580309  0.20552137  0.91035031    -0.27800
C934        C  0.09641238  0.18769137  0.89228620     0.18200
C935        C  0.04784737  0.17967320  0.85965569     0.12200
C936        C  0.04616482  0.21751358  0.89184326    -0.12200
H937        H  0.07865874  0.22866566  0.92171315     0.12500
C938        C  0.11327931  0.17628099  0.89249436    -0.23000
H939        H  0.08091752  0.16629420  0.86148437     0.08100
C940        C  0.04178615  0.18012338  0.81453804     0.04500
C941        C  0.02644350  0.17011164  0.80243806    -0.20200
C942        C  0.01727932  0.15929733  0.83419492    -0.12500
C943        C  0.02342086  0.15895180  0.87961848     0.13200
C944        C  0.03860045  0.16920938  0.89164048    -0.23000
C945        C  0.05173226  0.19084457  0.77907433    -0.06000
H946        H  0.02186535  0.17036741  0.76765083     0.14700
C947        C  0.01392872  0.14819566  0.91595434    -0.16200
H948        H  0.04344896  0.16895608  0.92621321     0.09000
H949        H  0.11102250  0.16284616  0.87684286     0.06900
H950        H  0.11778306  0.17386055  0.92778387     0.08100
H951        H  0.12408164  0.18310645  0.87283302     0.07100
H952        H  0.03610241  0.21016495  0.91274871     0.02000
H953        H  0.04084032  0.21903607  0.85701584     0.02500
H954        H  0.04794049  0.23122583  0.90632236     0.06000
H955        H  0.04523605  0.18966555  0.74539098     0.05000
H956        H  0.06578823  0.18582282  0.77619171    -0.00800
H957        H  0.05200817  0.20534143  0.78843253     0.00700
H958        H  0.01992312  0.15058623  0.94980570     0.04300
H959        H  0.01506575  0.13352049  0.90896242     0.06300
H960        H  0.99949205  0.15212859  0.91755886     0.07100
C961        C  0.23240685  0.20546145  0.98281879    -0.22500
C962        C  0.24245232  0.21957063  0.00154448     0.09500
C963        C  0.23400567  0.23603845  0.01217818     0.09900
C964        C  0.21549773  0.23795688  0.00472398    -0.17400
C965        C  0.20512782  0.22391329  0.98594561    -0.27800
C966        C  0.21383320  0.20740130  0.97449486     0.18200
C967        C  0.26191089  0.21717563  0.00998719     0.12200
C968        C  0.24460769  0.25169503  0.03107267    -0.12200
H969        H  0.20920040  0.25071117  0.01313233     0.12500
C970        C  0.20391959  0.19172628  0.95352884    -0.23000
H971        H  0.23918179  0.19293240  0.97455055     0.08100
C972        C  0.26829038  0.21203680  0.05300877     0.04500
C973        C  0.28673172  0.21362821  0.06261368    -0.20200
C974        C  0.29875304  0.22055533  0.03031393    -0.12500
C975        C  0.29250487  0.22447913  0.98614465     0.13200
C976        C  0.27409257  0.22262600  0.97646406    -0.23000
C977        C  0.25550651  0.20556109  0.08917011    -0.06000
H978        H  0.29160851  0.21042468  0.09622464     0.14700
C979        C  0.30511981  0.23067122  0.94919610    -0.16200
H980        H  0.26901379  0.22637734  0.94341844     0.09000
H981        H  0.21291808  0.17995163  0.94794784     0.06900
H982        H  0.19842368  0.19573499  0.92007587     0.08100
H983        H  0.19282943  0.18725233  0.97617013     0.07100
H984        H  0.25531712  0.25572238  0.00681310     0.02000
H985        H  0.25093079  0.24776436  0.06362637     0.02500
H986        H  0.23593074  0.26365470  0.03729167     0.06000
H987        H  0.26271015  0.20213517  0.12095409     0.05000
H988        H  0.24834354  0.19328691  0.07728605    -0.00800
H989        H  0.24546076  0.21622670  0.09689032     0.00700
H990        H  0.29809623  0.23187894  0.91618065     0.04300
H991        H  0.31627890  0.22079863  0.94526537     0.06300
H992        H  0.31075633  0.24413815  0.95738857     0.07100
C993        C  0.08928399  0.24070102  0.39554749    -0.22500
C994        C  0.09292597  0.22359402  0.41378451     0.09500
C995        C  0.10588762  0.22173098  0.44831043     0.09900
C996        C  0.11486523  0.23710830  0.46408334    -0.17400
C997        C  0.11143116  0.25424217  0.44557691    -0.27800
C998        C  0.09859908  0.25607835  0.41041363     0.18200
C999        C  0.08391754  0.20762395  0.39418567     0.12200
C1000       C  0.11030957  0.20352253  0.46832669    -0.12200
H1001       H  0.12480236  0.23573468  0.49075519     0.12500
C1002       C  0.09510282  0.27362642  0.38583624    -0.23000
H1003       H  0.07958850  0.24193798  0.36827652     0.08100
C1004       C  0.06584465  0.20328357  0.40431852     0.04500
C1005       C  0.05813644  0.18774627  0.38527800    -0.20200
C1006       C  0.06809954  0.17660085  0.35619082    -0.12500
C1007       C  0.08602735  0.18141494  0.34470226     0.13200
C1008       C  0.09375726  0.19672718  0.36448452    -0.23000
C1009       C  0.05480783  0.21493298  0.43547627    -0.06000
H1010       H  0.04431324  0.18420113  0.39332027     0.14700
C1011       C  0.09716940  0.17141841  0.31016940    -0.16200
H1012       H  0.10751224  0.20042070  0.35602648     0.09000
H1013       H  0.08090282  0.27782733  0.39128799     0.06900
H1014       H  0.09731792  0.27165514  0.34906390     0.08100
H1015       H  0.10405261  0.28480384  0.39635830     0.07100
H1016       H  0.11587840  0.19452307  0.44183325     0.02000
H1017       H  0.09792304  0.19733155  0.48268805     0.02500
H1018       H  0.12048674  0.20457452  0.49572943     0.06000
H1019       H  0.04100137  0.20943469  0.44034513     0.05000
H1020       H  0.05355988  0.22874037  0.42110061    -0.00800
H1021       H  0.06144919  0.21572161  0.46903491     0.00700
H1022       H  0.10162726  0.18098367  0.28341146     0.04300
H1023       H  0.08975792  0.16046226  0.29301759     0.06300
H1024       H  0.10927007  0.16556416  0.32670408     0.07100
C1025       C  0.14417420  0.25580149  0.67220297    -0.22500
C1026       C  0.16178172  0.25596434  0.68877464     0.09500
C1027       C  0.17604380  0.26206198  0.66127037     0.09900
C1028       C  0.17212601  0.26910776  0.61831021    -0.17400
C1029       C  0.15427002  0.26995604  0.60235962    -0.27800
C1030       C  0.14014885  0.26259216  0.62929784     0.18200
C1031       C  0.16434933  0.25112263  0.73657242     0.12200
C1032       C  0.19530003  0.26103485  0.67723439    -0.12200
H1033       H  0.18301279  0.27432962  0.59761101     0.12500
C1034       C  0.12078008  0.26161834  0.61365978    -0.23000
H1035       H  0.13341745  0.25082022  0.69373915     0.08100
C1036       C  0.16403314  0.26460024  0.77007153     0.04500
C1037       C  0.16382003  0.25945143  0.81546798    -0.20200
C1038       C  0.16290846  0.24119188  0.82825621    -0.12500
C1039       C  0.16373430  0.22764848  0.79458080     0.13200
C1040       C  0.16453169  0.23284831  0.74895889    -0.23000
C1041       C  0.16290176  0.28439122  0.75800162    -0.06000
H1042       H  0.16347951  0.26983940  0.84112478     0.14700
C1043       C  0.16398489  0.20781449  0.80623781    -0.16200
H1044       H  0.16462214  0.22265288  0.72271021     0.09000
H1045       H  0.11498675  0.27539469  0.61089465     0.06900
H1046       H  0.11216845  0.25399513  0.63781205     0.08100
H1047       H  0.12001977  0.25460210  0.58057326     0.07100
H1048       H  0.19884021  0.24674641  0.68447811     0.02000
H1049       H  0.19711361  0.26907616  0.70846292     0.02500
H1050       H  0.20482987  0.26626863  0.65135132     0.06000
H1051       H  0.16250819  0.29306906  0.78855087     0.05000
H1052       H  0.15045772  0.28699438  0.73818211    -0.00800
H1053       H  0.17478220  0.28847592  0.73765978     0.00700
H1054       H  0.15097711  0.20374995  0.82176328     0.04300
H1055       H  0.17521137  0.20496363  0.83003751     0.06300
H1056       H  0.16598320  0.19931643  0.77575765     0.07100
C1057       C  0.16336510  0.26396181  0.17820718    -0.22500
C1058       C  0.15514569  0.28042325  0.18912378     0.09500
C1059       C  0.14567845  0.29018012  0.15575745     0.09900
C1060       C  0.14365755  0.28264296  0.11265361    -0.17400
C1061       C  0.15103700  0.26571267  0.10253089    -0.27800
C1062       C  0.16157488  0.25652181  0.13499265     0.18200
C1063       C  0.15518287  0.28620791  0.23675796     0.12200
C1064       C  0.13754971  0.30835808  0.16592211    -0.12200
H1065       H  0.13592289  0.28974534  0.08710116     0.12500
C1066       C  0.17123941  0.23905878  0.12502627    -0.23000
H1067       H  0.17085379  0.25667348  0.20392972     0.08100
C1068       C  0.14145371  0.28040271  0.26638154     0.04500
C1069       C  0.14252587  0.28494696  0.31211879    -0.20200
C1070       C  0.15699082  0.29513993  0.32890432    -0.12500
C1071       C  0.17069324  0.30112678  0.29912721     0.13200
C1072       C  0.16952932  0.29664030  0.25312970    -0.23000
C1073       C  0.12582836  0.26918067  0.24980589    -0.06000
H1074       H  0.13204969  0.28041299  0.33510950     0.14700
C1075       C  0.18709656  0.31138780  0.31478487    -0.16200
H1076       H  0.18010917  0.30087307  0.23011657     0.09000
H1077       H  0.16661553  0.22841881  0.14883380     0.06900
H1078       H  0.18596719  0.24102927  0.12966824     0.08100
H1079       H  0.16902844  0.23419633  0.09004850     0.07100
H1080       H  0.14834562  0.31786433  0.17639848     0.02000
H1081       H  0.12753068  0.30712222  0.19362543     0.02500
H1082       H  0.13063441  0.31416070  0.13592884     0.06000
H1083       H  0.11634722  0.26571860  0.27757255     0.05000
H1084       H  0.13088471  0.25637456  0.23504420    -0.00800
H1085       H  0.11821481  0.27675341  0.22363044     0.00700
H1086       H  0.19944251  0.30383306  0.30516975     0.04300
H1087       H  0.18755189  0.31335153  0.35183134     0.06300
H1088       H  0.18741397  0.32486238  0.29824629     0.07100
C1089       C  0.36152378  0.27061998  0.84597255    -0.22500
C1090       C  0.34477629  0.27860261  0.83777496     0.09500
C1091       C  0.33199987  0.27999991  0.87275499     0.09900
C1092       C  0.33623969  0.27303979  0.91555322    -0.17400
C1093       C  0.35279962  0.26436468  0.92358422    -0.27800
C1094       C  0.36576706  0.26340524  0.88831161     0.18200
C1095       C  0.34084517  0.28425985  0.79113442     0.12200
C1096       C  0.31394491  0.28870610  0.86471762    -0.12200
H1097       H  0.32636172  0.27393497  0.94247419     0.12500
C1098       C  0.38417347  0.25504318  0.89457712    -0.23000
H1099       H  0.37119223  0.26968686  0.81853376     0.08100
C1100       C  0.34857485  0.30001134  0.77266803     0.04500
C1101       C  0.34753683  0.30293046  0.72600349    -0.20200
C1102       C  0.33931046  0.29020851  0.69753113    -0.12500
C1103       C  0.33054010  0.27499676  0.71656426     0.13200
C1104       C  0.33142117  0.27224335  0.76335663    -0.23000
C1105       C  0.35836112  0.31341313  0.80203483    -0.06000
H1106       H  0.35406327  0.31468486  0.71145412     0.14700
C1107       C  0.32019177  0.26169798  0.68805524    -0.16200
H1108       H  0.32547881  0.26021310  0.77817175     0.09000
H1109       H  0.39282983  0.25690254  0.86426250     0.06900
H1110       H  0.38290804  0.24027448  0.90028940     0.08100
H1111       H  0.39115989  0.26145432  0.92359719     0.07100
H1112       H  0.30647481  0.28115963  0.83830330     0.02000
H1113       H  0.31590081  0.30288222  0.85337980     0.02500
H1114       H  0.30557902  0.28882411  0.89586644     0.06000
H1115       H  0.36336219  0.32514510  0.78217822     0.05000
H1116       H  0.37013536  0.30685741  0.81838752    -0.00800
H1117       H  0.34908790  0.31852607  0.82854394     0.00700
H1118       H  0.32945238  0.25432120  0.66523606     0.04300
H1119       H  0.30987182  0.26895186  0.66778717     0.06300
H1120       H  0.31314776  0.25146396  0.70918115     0.07100
C1121       C  0.34111669  0.27150683  0.34476589    -0.22500
C1122       C  0.34299651  0.25293714  0.33711125     0.09500
C1123       C  0.34715865  0.24124464  0.37334773     0.09900
C1124       C  0.34958619  0.24850503  0.41665929    -0.17400
C1125       C  0.34806530  0.26712929  0.42401712    -0.27800
C1126       C  0.34361551  0.27879470  0.38788318     0.18200
C1127       C  0.34244488  0.24652549  0.28999036     0.12200
C1128       C  0.34920641  0.22122233  0.36613855    -0.12200
H1129       H  0.35304102  0.23970524  0.44469831     0.12500
C1130       C  0.34172434  0.29895309  0.39341833    -0.23000
H1131       H  0.33812986  0.28042937  0.31660776     0.08100
C1132       C  0.32607126  0.24425374  0.26643310     0.04500
C1133       C  0.32653159  0.24013452  0.22012099    -0.20200
C1134       C  0.34303245  0.23821949  0.19743318    -0.12500
C1135       C  0.35942167  0.24054663  0.22121654     0.13200
C1136       C  0.35887298  0.24443101  0.26737907    -0.23000
C1137       C  0.30822710  0.24611902  0.29025726    -0.06000
H1138       H  0.31405695  0.23837818  0.20161753     0.14700
C1139       C  0.37772447  0.24001852  0.19878009    -0.16200
H1140       H  0.37138522  0.24655609  0.28559495     0.09000
H1141       H  0.32806052  0.30320080  0.38237158     0.06900
H1142       H  0.35193235  0.30594657  0.37217036     0.08100
H1143       H  0.34350809  0.30345951  0.42879542     0.07100
H1144       H  0.36035790  0.21859326  0.34200858     0.02000
H1145       H  0.33647886  0.21560424  0.35228387     0.02500
H1146       H  0.35231199  0.21403254  0.39820147     0.06000
H1147       H  0.29672996  0.24370155  0.26700289     0.05000
H1148       H  0.30686372  0.25994582  0.30427208    -0.00800
H1149       H  0.30740707  0.23614080  0.31827620     0.00700
H1150       H  0.38495140  0.25288546  0.20543448     0.04300
H1151       H  0.37713951  0.23844372  0.16162565     0.06300
H1152       H  0.38572628  0.22867796  0.21298746     0.07100
C1153       C  0.26908727  0.32714468  0.55091022    -0.22500
C1154       C  0.26093833  0.31672234  0.51711704     0.09500
C1155       C  0.27123232  0.30388350  0.49322921     0.09900
C1156       C  0.28942209  0.30145918  0.50430898    -0.17400
C1157       C  0.29756371  0.31157704  0.53868632    -0.27800
C1158       C  0.28729860  0.32461715  0.56240502     0.18200
C1159       C  0.24122210  0.31780652  0.51024785     0.12200
C1160       C  0.26287203  0.29243956  0.45674378    -0.12200
H1161       H  0.29732019  0.29144228  0.48639098     0.12500
C1162       C  0.29468827  0.33530932  0.60155876    -0.23000
H1163       H  0.26099879  0.33674811  0.56967890     0.08100
C1164       C  0.22958300  0.30618300  0.53430182     0.04500
C1165       C  0.21142324  0.30518748  0.52187080    -0.20200
C1166       C  0.20456985  0.31565811  0.48627402    -0.12500
C1167       C  0.21604235  0.32791092  0.46330612     0.13200
C1168       C  0.23430847  0.32885727  0.47579107    -0.23000
C1169       C  0.23644705  0.29445961  0.57229603    -0.06000
H1170       H  0.20253014  0.29592680  0.53957837     0.14700
C1171       C  0.20983785  0.33936682  0.42410603    -0.16200
H1172       H  0.24337906  0.33765973  0.45723179     0.09000
H1173       H  0.28628423  0.33278772  0.63201212     0.06900
H1174       H  0.29423652  0.34994119  0.59332451     0.08100
H1175       H  0.30873375  0.33171467  0.61039200     0.07100
H1176       H  0.25751586  0.30126360  0.42949584     0.02000
H1177       H  0.25168243  0.28425362  0.47103894     0.02500
H1178       H  0.27282025  0.28304122  0.44150561     0.06000
H1179       H  0.22551956  0.28613345  0.58741644     0.05000
H1180       H  0.24221454  0.30309316  0.59930018    -0.00800
H1181       H  0.24704142  0.28518309  0.55958889     0.00700
H1182       H  0.21166666  0.35386337  0.43249329     0.04300
H1183       H  0.19551599  0.33718279  0.41514373     0.06300
H1184       H  0.21804674  0.33615697  0.39377269     0.07100
C1185       C  0.77674983  0.70438976  0.54909689    -0.22500
C1186       C  0.76650451  0.71900550  0.53336657     0.09500
C1187       C  0.77491407  0.73576386  0.52512062     0.09900
C1188       C  0.79340026  0.73761862  0.53329834    -0.17400
C1189       C  0.80381630  0.72311901  0.54955590    -0.27800
C1190       C  0.79536079  0.70619276  0.55729466     0.18200
C1191       C  0.74696276  0.71669042  0.52513313     0.12200
C1192       C  0.76434518  0.75172841  0.50774258    -0.12200
H1193       H  0.79975855  0.75057363  0.52697478     0.12500
C1194       C  0.80562043  0.69018217  0.57542895    -0.23000
H1195       H  0.77009901  0.69155051  0.55516187     0.08100
C1196       C  0.74046047  0.71137868  0.48243012     0.04500
C1197       C  0.72187095  0.71196024  0.47390697    -0.20200
C1198       C  0.70970247  0.71790993  0.50702191    -0.12500
C1199       C  0.71612905  0.72194880  0.55092585     0.13200
C1200       C  0.73475535  0.72146150  0.55926337    -0.23000
C1201       C  0.75321784  0.70579588  0.44539061    -0.06000
H1202       H  0.71692556  0.70876079  0.44038951     0.14700
C1203       C  0.70378135  0.72658936  0.58973571    -0.16200
H1204       H  0.73983345  0.72524235  0.59227194     0.09000
H1205       H  0.79666221  0.67836097  0.58115730     0.06900
H1206       H  0.81197790  0.69370608  0.60821723     0.08100
H1207       H  0.81615352  0.68604734  0.55089719     0.07100
H1208       H  0.75352556  0.75523451  0.53212346     0.02000
H1209       H  0.75817640  0.74839461  0.47462311     0.02500
H1210       H  0.77302647  0.76382420  0.50304518     0.06000
H1211       H  0.74590693  0.70210497  0.41398589     0.05000
H1212       H  0.76116386  0.69389238  0.45656827    -0.00800
H1213       H  0.76256781  0.71706754  0.43730495     0.00700
H1214       H  0.70634853  0.71718113  0.61831389     0.04300
H1215       H  0.68930190  0.72534352  0.58106134     0.06300
H1216       H  0.70646467  0.74061334  0.60113339     0.07100
C1217       C  0.90280379  0.81988912  0.58598972    -0.22500
C1218       C  0.91661680  0.81772901  0.61775623     0.09500
C1219       C  0.92069359  0.80035610  0.63457889     0.09900
C1220       C  0.91063114  0.78545985  0.61959741    -0.17400
C1221       C  0.89633918  0.78764816  0.58897667    -0.27800
C1222       C  0.89258667  0.80506152  0.57127246     0.18200
C1223       C  0.92571254  0.83402002  0.63551086     0.12200
C1224       C  0.93540427  0.79763670  0.66901788    -0.12200
H1225       H  0.91358851  0.77211646  0.63284475     0.12500
C1226       C  0.87817622  0.80808253  0.53606835    -0.23000
H1227       H  0.89983926  0.83330680  0.57325070     0.08100
C1228       C  0.94167135  0.84092762  0.61604990     0.04500
C1229       C  0.94996952  0.85610677  0.63550913    -0.20200
C1230       C  0.94239324  0.86466448  0.67326944    -0.12500
C1231       C  0.92626959  0.85777155  0.69242395     0.13200
C1232       C  0.91812953  0.84257687  0.67308843    -0.23000
C1233       C  0.94976621  0.83238600  0.57462798    -0.06000
H1234       H  0.96228313  0.86147778  0.62088368     0.14700
C1235       C  0.91754262  0.86559099  0.73405556    -0.16200
H1236       H  0.90586870  0.83716367  0.68787888     0.09000
H1237       H  0.87802615  0.82228458  0.52386879     0.06900
H1238       H  0.86466814  0.80515739  0.55045539     0.08100
H1239       H  0.88065092  0.79920525  0.50649953     0.07100
H1240       H  0.93229073  0.80548003  0.69998340     0.02000
H1241       H  0.94849632  0.80228826  0.65501642     0.02500
H1242       H  0.93681539  0.78320168  0.67871751     0.06000
H1243       H  0.96220279  0.83952090  0.56360374     0.05000
H1244       H  0.93989933  0.83287489  0.54644168    -0.00800
H1245       H  0.95328511  0.81809386  0.58173988     0.00700
H1246       H  0.90379992  0.87048767  0.72561695     0.04300
H1247       H  0.92519561  0.87692645  0.74870928     0.06300
H1248       H  0.91645916  0.85498479  0.76053819     0.07100
C1249       C  0.68442770  0.75422247  0.27332678    -0.22500
C1250       C  0.67188023  0.74670862  0.24352378     0.09500
C1251       C  0.65993206  0.73322065  0.25870783     0.09900
C1252       C  0.66029314  0.72801928  0.30415495    -0.17400
C1253       C  0.67212226  0.73621081  0.33514021    -0.27800
C1254       C  0.68470500  0.74923949  0.31913188     0.18200
C1255       C  0.67013801  0.75439782  0.19774135     0.12200
C1256       C  0.64632240  0.72482290  0.22728703    -0.12200
H1257       H  0.65060761  0.71808040  0.31584680     0.12500
C1258       C  0.69835502  0.75813669  0.34960381    -0.23000
H1259       H  0.69354685  0.76457046  0.26096251     0.08100
C1260       C  0.65912729  0.76959153  0.19006792     0.04500
C1261       C  0.65651405  0.77566764  0.14581176    -0.20200
C1262       C  0.66438347  0.76673474  0.10892220    -0.12500
C1263       C  0.67545689  0.75142458  0.11670507     0.13200
C1264       C  0.67841793  0.74566123  0.16131679    -0.23000
C1265       C  0.64976622  0.77909642  0.22850532    -0.06000
H1266       H  0.64801182  0.78735637  0.13987752     0.14700
C1267       C  0.68345430  0.74009575  0.07944408    -0.16200
H1268       H  0.68661336  0.73379589  0.16765394     0.09000
H1269       H  0.69145494  0.76692373  0.37452042     0.06900
H1270       H  0.70784773  0.76683833  0.33028913     0.08100
H1271       H  0.70642597  0.74767178  0.36736091     0.07100
H1272       H  0.65340017  0.71803845  0.19896335     0.02000
H1273       H  0.63726760  0.73542273  0.21348401     0.02500
H1274       H  0.63784418  0.71459920  0.24481025     0.06000
H1275       H  0.64150146  0.79065188  0.21643945     0.05000
H1276       H  0.65992164  0.78436477  0.25266530    -0.00800
H1277       H  0.64069355  0.76951883  0.24640836     0.00700
H1278       H  0.69839483  0.74063988  0.08141590     0.04300
H1279       H  0.67927069  0.74426503  0.04515744     0.06300
H1280       H  0.67905862  0.72584821  0.08375659     0.07100
C1281       C  0.64429821  0.77561022  0.77007561    -0.22500
C1282       C  0.65939869  0.77767787  0.74220459     0.09500
C1283       C  0.67550586  0.78498294  0.75965830     0.09900
C1284       C  0.67628059  0.78971132  0.80549773    -0.17400
C1285       C  0.66131968  0.78707044  0.83369882    -0.27800
C1286       C  0.64500651  0.78026479  0.81573724     0.18200
C1287       C  0.65804257  0.77140511  0.69522580     0.12200
C1288       C  0.69187678  0.78737111  0.73012118    -0.12200
H1289       H  0.68870611  0.79492878  0.81968217     0.12500
C1290       C  0.62804242  0.77795997  0.84347328    -0.23000
H1291       H  0.63192845  0.77012187  0.75614000     0.08100
C1292       C  0.66039015  0.75301189  0.68456692     0.04500
C1293       C  0.65749780  0.74729872  0.64019218    -0.20200
C1294       C  0.65244842  0.75960020  0.60646223    -0.12500
C1295       C  0.65020703  0.77808592  0.61702172     0.13200
C1296       C  0.65311804  0.78377070  0.66153725    -0.23000
C1297       C  0.66591953  0.73945587  0.72001329    -0.06000
H1298       H  0.65927385  0.73316672  0.63164118     0.14700
C1299       C  0.64405150  0.79198351  0.58299477    -0.16200
H1300       H  0.65112616  0.79784743  0.67030662     0.09000
H1301       H  0.62403135  0.76350663  0.84390903     0.06900
H1302       H  0.61698191  0.78596686  0.82800963     0.08100
H1303       H  0.62947773  0.78257041  0.87887965     0.07100
H1304       H  0.68867000  0.79668158  0.70177369     0.02000
H1305       H  0.69607311  0.77410720  0.71620128     0.02500
H1306       H  0.70341252  0.79310986  0.74923983     0.06000
H1307       H  0.66734374  0.72567383  0.70567229     0.05000
H1308       H  0.65562283  0.73889948  0.74721950    -0.00800
H1309       H  0.67909303  0.74343221  0.73477033     0.00700
H1310       H  0.63145635  0.79846111  0.59517765     0.04300
H1311       H  0.64115765  0.78622972  0.54927457     0.06300
H1312       H  0.65460055  0.80252131  0.57907336     0.07100
C1313       C  0.83785335  0.78575561  0.37874378    -0.22500
C1314       C  0.84936829  0.78007786  0.34405592     0.09500
C1315       C  0.86379846  0.76833696  0.35377703     0.09900
C1316       C  0.86635743  0.76242336  0.39814268    -0.17400
C1317       C  0.85477004  0.76777881  0.43320905    -0.27800
C1318       C  0.84036339  0.77976213  0.42344254     0.18200
C1319       C  0.84674279  0.78695735  0.29771833     0.12200
C1320       C  0.87659672  0.76212073  0.31734408    -0.12200
H1321       H  0.87752522  0.75346680  0.40538098     0.12500
C1322       C  0.82804400  0.78683290  0.45984542    -0.23000
H1323       H  0.82696234  0.79498851  0.37077090     0.08100
C1324       C  0.83705951  0.77695285  0.26545409     0.04500
C1325       C  0.83788616  0.78216562  0.21999042    -0.20200
C1326       C  0.84831467  0.79704409  0.20596783    -0.12500
C1327       C  0.85723277  0.80767167  0.23901541     0.13200
C1328       C  0.85614703  0.80249375  0.28455704    -0.23000
C1329       C  0.82637943  0.76046177  0.27885757    -0.06000
H1330       H  0.83084408  0.77416145  0.19491171     0.14700
C1331       C  0.86900838  0.82372587  0.22828936    -0.16200
H1332       H  0.86360841  0.81003388  0.30978562     0.09000
H1333       H  0.82009263  0.77559301  0.47473067     0.06900
H1334       H  0.81833029  0.79690399  0.44634269     0.08100
H1335       H  0.83613372  0.79352544  0.48659783     0.07100
H1336       H  0.88339699  0.77396819  0.30179673     0.02000
H1337       H  0.86908014  0.75467344  0.29085190     0.02500
H1338       H  0.88717081  0.75297688  0.33093206     0.06000
H1339       H  0.81957686  0.75420524  0.24934099     0.05000
H1340       H  0.81588575  0.76428579  0.30382917    -0.00800
H1341       H  0.83541958  0.75019827  0.29419428     0.00700
H1342       H  0.86353548  0.83588338  0.24538186     0.04300
H1343       H  0.87014446  0.82678108  0.19199527     0.06300
H1344       H  0.88285928  0.82119484  0.24107732     0.07100
C1345       C  0.83355282  0.75122528  0.88107649    -0.22500
C1346       C  0.84459179  0.75684672  0.84524129     0.09500
C1347       C  0.85849114  0.76943657  0.85280033     0.09900
C1348       C  0.86144578  0.77575477  0.89642256    -0.17400
C1349       C  0.85071774  0.77006524  0.93291340    -0.27800
C1350       C  0.83634717  0.75782591  0.92509652     0.18200
C1351       C  0.84181398  0.74967101  0.79944976     0.12200
C1352       C  0.87030637  0.77619278  0.81477263    -0.12200
H1353       H  0.87228999  0.78531437  0.90195725     0.12500
C1354       C  0.82426310  0.75135674  0.96273827    -0.23000
H1355       H  0.82281944  0.74162817  0.87453734     0.08100
C1356       C  0.85198959  0.73486535  0.78382824     0.04500
C1357       C  0.85290625  0.73153612  0.73731233    -0.20200
C1358       C  0.84431960  0.74305746  0.70638328    -0.12500
C1359       C  0.83311703  0.75713663  0.72236123     0.13200
C1360       C  0.83185003  0.76012398  0.76895650    -0.23000
C1361       C  0.86263498  0.72325266  0.81607205    -0.06000
H1362       H  0.86126703  0.72061014  0.72491540     0.14700
C1363       C  0.82262971  0.76914424  0.69062964    -0.16200
H1364       H  0.82410448  0.77148338  0.78152410     0.09000
H1365       H  0.81424827  0.74131385  0.95060553     0.06900
H1366       H  0.81667901  0.76292452  0.97709344     0.08100
H1367       H  0.83246720  0.74485775  0.98961416     0.07100
H1368       H  0.86191746  0.78308259  0.78890133     0.02000
H1369       H  0.87751218  0.76470072  0.79891248     0.02500
H1370       H  0.88056426  0.78600464  0.82681727     0.06000
H1371       H  0.86991431  0.71227632  0.79819629     0.05000
H1372       H  0.85337937  0.71698829  0.84111217    -0.00800
H1373       H  0.87275355  0.73160427  0.83414271     0.00700
H1374       H  0.81369928  0.77859054  0.70927739     0.04300
H1375       H  0.81404875  0.76075602  0.66819848     0.06300
H1376       H  0.83197207  0.77743362  0.66989485     0.07100
C1377       C  0.78050073  0.82522605  0.99624926    -0.22500
C1378       C  0.76732062  0.81783844  0.02482861     0.09500
C1379       C  0.77245977  0.81012800  0.06652464     0.09900
C1380       C  0.79078610  0.80935558  0.07799431    -0.17400
C1381       C  0.80410702  0.81611050  0.04875829    -0.27800
C1382       C  0.79889551  0.82447817  0.00772594     0.18200
C1383       C  0.74859837  0.81596357  0.00808933     0.12200
C1384       C  0.75864063  0.80211207  0.09813664    -0.12200
H1385       H  0.79480519  0.80294652  0.10939807     0.12500
C1386       C  0.81269368  0.83157180  0.97472835    -0.23000
H1387       H  0.77641682  0.83090693  0.96403824     0.08100
C1388       C  0.73512104  0.82883491  0.01726105     0.04500
C1389       C  0.71722732  0.82524268  0.00439977    -0.20200
C1390       C  0.71246917  0.80897872  0.98278080    -0.12500
C1391       C  0.72637283  0.79644517  0.97187170     0.13200
C1392       C  0.74417769  0.80020241  0.98468527    -0.23000
C1393       C  0.73962173  0.84620799  0.04106551    -0.06000
H1394       H  0.70684544  0.83501779  0.01247130     0.14700
C1395       C  0.72287762  0.77900604  0.94698195    -0.16200
H1396       H  0.75475457  0.79050291  0.97756329     0.09000
H1397       H  0.80628013  0.83696317  0.94357683     0.06900
H1398       H  0.82202830  0.82054692  0.96475468     0.08100
H1399       H  0.82050474  0.84269883  0.99044021     0.07100
H1400       H  0.75137372  0.79092334  0.08109847     0.02000
H1401       H  0.74878831  0.81262856  0.10826238     0.02500
H1402       H  0.76495674  0.79662041  0.12929969     0.06000
H1403       H  0.72751891  0.85485427  0.04554969     0.05000
H1404       H  0.74969399  0.85389185  0.02096176    -0.00800
H1405       H  0.74531535  0.84327286  0.07496746     0.00700
H1406       H  0.71607384  0.78186377  0.91431195     0.04300
H1407       H  0.71447510  0.76984296  0.96799572     0.06300
H1408       H  0.73556635  0.77165772  0.93929596     0.07100
C1409       C  0.89555534  0.89810197  0.84085833    -0.22500
C1410       C  0.90086651  0.88814077  0.87892987     0.09500
C1411       C  0.91925599  0.88744278  0.89114261     0.09900
C1412       C  0.93206158  0.89565907  0.86315819    -0.17400
C1413       C  0.92700893  0.90423886  0.82278286    -0.27800
C1414       C  0.90846392  0.90626610  0.81251461     0.18200
C1415       C  0.88789112  0.87591196  0.90142705     0.12200
C1416       C  0.92553739  0.87687765  0.93192612    -0.12200
H1417       H  0.94626910  0.89423806  0.87115227     0.12500
C1418       C  0.90228743  0.91576707  0.77019048    -0.23000
H1419       H  0.88138968  0.89852146  0.83182985     0.08100
C1420       C  0.88059847  0.87992423  0.94408193     0.04500
C1421       C  0.87356027  0.86584196  0.97055699    -0.20200
C1422       C  0.87386405  0.84777115  0.95547348    -0.12500
C1423       C  0.87917247  0.84428069  0.91013511     0.13200
C1424       C  0.88603941  0.85848770  0.88375672    -0.23000
C1425       C  0.88091339  0.89892084  0.96220025    -0.06000
H1426       H  0.86891491  0.86890120  0.00439300     0.14700
C1427       C  0.87848216  0.82568926  0.88945249    -0.16200
H1428       H  0.89144538  0.85568622  0.85042130     0.09000
H1429       H  0.88735598  0.91585241  0.76730093     0.06900
H1430       H  0.90696783  0.93001491  0.77061191     0.08100
H1431       H  0.90779639  0.90884393  0.73994967     0.07100
H1432       H  0.92160774  0.86246936  0.92854711     0.02000
H1433       H  0.91939809  0.88245528  0.96308518     0.02500
H1434       H  0.94041872  0.87745152  0.93591269     0.06000
H1435       H  0.87468005  0.89973849  0.99627308     0.05000
H1436       H  0.87326268  0.90792228  0.93907558    -0.00800
H1437       H  0.89498426  0.90390187  0.96475591     0.00700
H1438       H  0.86469292  0.81999933  0.89295105     0.04300
H1439       H  0.88181367  0.82599473  0.85284284     0.06300
H1440       H  0.88846864  0.81668863  0.90597153     0.07100
C1441       C  0.95673715  0.87771292  0.17779503    -0.22500
C1442       C  0.95955548  0.85990953  0.16356895     0.09500
C1443       C  0.97703585  0.85241996  0.16563316     0.09900
C1444       C  0.99137969  0.86304737  0.18159428    -0.17400
C1445       C  0.98861600  0.88100840  0.19505587    -0.27800
C1446       C  0.97096930  0.88831109  0.19409749     0.18200
C1447       C  0.94400081  0.84972593  0.14520083     0.12200
C1448       C  0.98052023  0.83325713  0.15109914    -0.12200
H1449       H  0.00488046  0.85745208  0.18270885     0.12500
C1450       C  0.96642304  0.90690997  0.21139349    -0.23000
H1451       H  0.94325286  0.88335719  0.17638635     0.08100
C1452       C  0.93031794  0.84277684  0.17347669     0.04500
C1453       C  0.91507519  0.83465399  0.15402731    -0.20200
C1454       C  0.91329233  0.83309262  0.10694952    -0.12500
C1455       C  0.92734739  0.83972008  0.07864602     0.13200
C1456       C  0.94242201  0.84803908  0.09829792    -0.23000
C1457       C  0.93190087  0.84379027  0.22414123    -0.06000
H1458       H  0.90454798  0.82937417  0.17575413     0.14700
C1459       C  0.92644980  0.83872757  0.02771502    -0.16200
H1460       H  0.95298219  0.85353471  0.07694027     0.09000
H1461       H  0.95587027  0.90579158  0.23790684     0.06900
H1462       H  0.96114920  0.91531768  0.18323146     0.08100
H1463       H  0.97801914  0.91397846  0.22682328     0.07100
H1464       H  0.97710134  0.83164121  0.11482368     0.02000
H1465       H  0.97212300  0.82387318  0.17153381     0.02500
H1466       H  0.99489088  0.82944070  0.15566011     0.06000
H1467       H  0.92021893  0.83731995  0.24125828     0.05000
H1468       H  0.93249612  0.85810950  0.23502976    -0.00800
H1469       H  0.94435438  0.83674402  0.23525118     0.00700
H1470       H  0.93808469  0.84563069  0.01147715     0.04300
H1471       H  0.91395310  0.84536714  0.01537363     0.06300
H1472       H  0.92675599  0.82442214  0.01660397     0.07100
C1473       C  0.54933792  0.86984877  0.90881490    -0.22500
C1474       C  0.55759402  0.85767229  0.87910192     0.09500
C1475       C  0.55091084  0.85578476  0.83481777     0.09900
C1476       C  0.53645754  0.86658213  0.82065434    -0.17400
C1477       C  0.52844219  0.87928790  0.84968749    -0.27800
C1478       C  0.53479368  0.88068020  0.89482331     0.18200
C1479       C  0.57367204  0.84748287  0.89436265     0.12200
C1480       C  0.55927382  0.84262484  0.80217647    -0.12200
H1481       H  0.53161479  0.86528345  0.78627280     0.12500
C1482       C  0.52621299  0.89318241  0.92878058    -0.23000
H1483       H  0.55446868  0.87099740  0.94298883     0.08100
C1484       C  0.59080813  0.85574088  0.89621180     0.04500
C1485       C  0.60576400  0.84551967  0.90991339    -0.20200
C1486       C  0.60396704  0.82724587  0.92183275    -0.12500
C1487       C  0.58687481  0.81881594  0.91844082     0.13200
C1488       C  0.57188807  0.82913997  0.90535041    -0.23000
C1489       C  0.59330272  0.87532671  0.88370057    -0.06000
H1490       H  0.61884062  0.85197892  0.91273413     0.14700
C1491       C  0.58403398  0.79891465  0.92672639    -0.16200
H1492       H  0.55874895  0.82277893  0.90301357     0.09000
H1493       H  0.52829053  0.90743957  0.91839408     0.06900
H1494       H  0.53219955  0.89156167  0.96295909     0.08100
H1495       H  0.51155769  0.89026061  0.93149787     0.07100
H1496       H  0.55796771  0.82865655  0.81550513     0.02000
H1497       H  0.57377075  0.84588251  0.79746057     0.02500
H1498       H  0.55262205  0.84309950  0.76857365     0.06000
H1499       H  0.60763476  0.87955930  0.88635274     0.05000
H1500       H  0.58524455  0.88398159  0.90666800    -0.00800
H1501       H  0.58882452  0.87758267  0.84833200     0.00700
H1502       H  0.57498451  0.79696470  0.95623737     0.04300
H1503       H  0.59675857  0.79150776  0.93280885     0.06300
H1504       H  0.57766519  0.79274830  0.89649916     0.07100
C1505       C  0.42856099  0.18841268  0.60067688    -0.22500
C1506       C  0.42063519  0.20042656  0.63141142     0.09500
C1507       C  0.42251278  0.19730658  0.67818875     0.09900
C1508       C  0.43193315  0.18202168  0.69314387    -0.17400
C1509       C  0.43969146  0.16974096  0.66255778    -0.27800
C1510       C  0.43840432  0.17329466  0.61556437     0.18200
C1511       C  0.41011302  0.21602954  0.61410408     0.12200
C1512       C  0.41461677  0.21012076  0.71240551    -0.12200
H1513       H  0.43293449  0.17947124  0.72913940     0.12500
C1514       C  0.44778700  0.16211311  0.58016916    -0.23000
H1515       H  0.42726518  0.19101177  0.56472683     0.08100
C1516       C  0.41853645  0.23172579  0.59722515     0.04500
C1517       C  0.40787347  0.24633193  0.58269984    -0.20200
C1518       C  0.38887655  0.24564388  0.58429482    -0.12500
C1519       C  0.38052128  0.22965107  0.60120837     0.13200
C1520       C  0.39129240  0.21515894  0.61577179    -0.23000
C1521       C  0.43878501  0.23312785  0.59509145    -0.06000
H1522       H  0.41449455  0.25834105  0.56986623     0.14700
C1523       C  0.36034108  0.22756685  0.60492834    -0.16200
H1524       H  0.38500041  0.20299423  0.62888500     0.09000
H1525       H  0.45621663  0.17106358  0.55861864     0.06900
H1526       H  0.43758034  0.15539646  0.55851468     0.08100
H1527       H  0.45696890  0.15180960  0.59443501     0.07100
H1528       H  0.39973953  0.21066088  0.70868212     0.02000
H1529       H  0.42030242  0.22384993  0.70719115     0.02500
H1530       H  0.41767190  0.20584932  0.74759808     0.06000
H1531       H  0.44323028  0.24643926  0.58172655     0.05000
H1532       H  0.44423638  0.22247817  0.57256394    -0.00800
H1533       H  0.44454552  0.23139658  0.62946186     0.00700
H1534       H  0.35646229  0.21440940  0.62025232     0.04300
H1535       H  0.35412159  0.22814353  0.57084325     0.06300
H1536       H  0.35476056  0.23837712  0.62674142     0.07100
C1537       C  0.39214139  0.14073404  0.83436659    -0.22500
C1538       C  0.39744198  0.15044721  0.87260279     0.09500
C1539       C  0.41584063  0.15118113  0.88447024     0.09900
C1540       C  0.42868468  0.14326285  0.85600076    -0.17400
C1541       C  0.42368883  0.13458524  0.81558711    -0.27800
C1542       C  0.40497525  0.13261121  0.80582291     0.18200
C1543       C  0.38405400  0.16131921  0.89785835     0.12200
C1544       C  0.42200335  0.16096814  0.92639966    -0.12200
H1545       H  0.44282210  0.14461757  0.86460454     0.12500
C1546       C  0.39822967  0.12225134  0.76541434    -0.23000
H1547       H  0.37792169  0.14005435  0.82602929     0.08100
C1548       C  0.37997742  0.17910482  0.88387061     0.04500
C1549       C  0.37189440  0.19097844  0.91458968    -0.20200
C1550       C  0.36777845  0.18540713  0.95871705    -0.12500
C1551       C  0.37005938  0.16711275  0.97108410     0.13200
C1552       C  0.37815193  0.15519412  0.94026074    -0.23000
C1553       C  0.38527004  0.18590468  0.83767234    -0.06000
H1554       H  0.36996304  0.20502142  0.90525601     0.14700
C1555       C  0.36544764  0.16053732  0.01790181    -0.16200
H1556       H  0.38123745  0.14148292  0.95056317     0.09000
H1557       H  0.40215603  0.12925095  0.73370201     0.06900
H1558       H  0.38329257  0.12110726  0.76535426     0.08100
H1559       H  0.40382056  0.10833655  0.76595367     0.07100
H1560       H  0.41592269  0.15457968  0.95678138     0.02000
H1561       H  0.41784122  0.17536181  0.92474374     0.02500
H1562       H  0.43688983  0.16052455  0.93031661     0.06000
H1563       H  0.38122330  0.20020906  0.83247713     0.05000
H1564       H  0.37855523  0.17761904  0.81136646    -0.00800
H1565       H  0.40011189  0.18499579  0.83332327     0.00700
H1566       H  0.36839735  0.14592018  0.02208462     0.04300
H1567       H  0.37345193  0.16807630  0.04335413     0.06300
H1568       H  0.35085893  0.16263656  0.02446323     0.07100
C1569       C  0.46005654  0.02948829  0.71165347    -0.22500
C1570       C  0.45486805  0.02496718  0.75577338     0.09500
C1571       C  0.44913750  0.03866907  0.78561629     0.09900
C1572       C  0.44969328  0.05678865  0.77136503    -0.17400
C1573       C  0.45620977  0.06139510  0.72834017    -0.27800
C1574       C  0.46084941  0.04757097  0.69754777     0.18200
C1575       C  0.45764240  0.00613461  0.77126494     0.12200
C1576       C  0.44287063  0.03416151  0.83272251    -0.12200
H1577       H  0.44602490  0.06743491  0.79472053     0.12500
C1578       C  0.46667379  0.05184591  0.64983912    -0.23000
H1579       H  0.46427750  0.01885604  0.68884544     0.08100
C1580       C  0.44562264  0.99206923  0.76009184     0.04500
C1581       C  0.44982318  0.97425816  0.77288564    -0.20200
C1582       C  0.46578881  0.97029916  0.79644018    -0.12500
C1583       C  0.47739380  0.98456983  0.80934967     0.13200
C1584       C  0.47328792  0.00224951  0.79592348    -0.23000
C1585       C  0.42844901  0.99589378  0.73473397    -0.06000
H1586       H  0.44083732  0.96332560  0.76357462     0.14700
C1587       C  0.49385384  0.98185721  0.83851207    -0.16200
H1588       H  0.48237315  0.01316224  0.80487407     0.09000
H1589       H  0.45616266  0.06009773  0.63282610     0.06900
H1590       H  0.46872200  0.03937930  0.62967137     0.08100
H1591       H  0.47959993  0.05938928  0.64991192     0.07100
H1592       H  0.45394135  0.02762590  0.85195995     0.02000
H1593       H  0.43118937  0.02479636  0.83102818     0.02500
H1594       H  0.43863235  0.04643289  0.85145017     0.06000
H1595       H  0.42043920  0.98340644  0.72924453     0.05000
H1596       H  0.43162592  0.00185968  0.70121069    -0.00800
H1597       H  0.42005522  0.00553582  0.75426101     0.00700
H1598       H  0.50612050  0.98569147  0.81921828     0.04300
H1599       H  0.49543910  0.96782888  0.85083912     0.06300
H1600       H  0.49283770  0.99060185  0.86885446     0.07100
C1601       C  0.61834300  0.80815363  0.38371711    -0.22500
C1602       C  0.60678105  0.81672806  0.41443271     0.09500
C1603       C  0.60384526  0.80895275  0.45734171     0.09900
C1604       C  0.61256552  0.79273452  0.46861184    -0.17400
C1605       C  0.62420050  0.78404545  0.43802888    -0.27800
C1606       C  0.62716819  0.79193073  0.39492352     0.18200
C1607       C  0.59661765  0.83289333  0.39923357     0.12200
C1608       C  0.59127689  0.81760288  0.49094686    -0.12200
H1609       H  0.61033302  0.78684553  0.50172483     0.12500
C1610       C  0.63902323  0.78307876  0.35994375    -0.23000
H1611       H  0.62024895  0.81409621  0.35052797     0.08100
C1612       C  0.60297997  0.85063733  0.40619822     0.04500
C1613       C  0.59295086  0.86533851  0.38941781    -0.20200
C1614       C  0.57695539  0.86265430  0.36476999    -0.12500
C1615       C  0.57061737  0.84472642  0.35815592     0.13200
C1616       C  0.58046538  0.83017118  0.37587924    -0.23000
C1617       C  0.62054569  0.85399931  0.43027343    -0.06000
H1618       H  0.59797554  0.87895594  0.39416820     0.14700
C1619       C  0.55344279  0.84064162  0.33283464    -0.16200
H1620       H  0.57572998  0.81646752  0.37076570     0.09000
H1621       H  0.63880267  0.79056012  0.32736438     0.06900
H1622       H  0.63426690  0.76909523  0.35341478     0.08100
H1623       H  0.65321674  0.78276097  0.37176447     0.07100
H1624       H  0.57751575  0.81852396  0.47638233     0.02000
H1625       H  0.59608492  0.83137554  0.49940004     0.02500
H1626       H  0.59044784  0.80969934  0.52284463     0.06000
H1627       H  0.62369292  0.86864611  0.43233471     0.05000
H1628       H  0.63169534  0.84724256  0.41184615    -0.00800
H1629       H  0.61989336  0.84855393  0.46518836     0.00700
H1630       H  0.54991829  0.82606749  0.33443520     0.04300
H1631       H  0.55498540  0.84420821  0.29660291     0.06300
H1632       H  0.54208612  0.84832748  0.34771579     0.07100
C1633       C  0.60065706  0.89115289  0.13728775    -0.22500
C1634       C  0.61684449  0.88487032  0.15598500     0.09500
C1635       C  0.62136572  0.88952557  0.20069417     0.09900
C1636       C  0.60833436  0.89788009  0.22797393    -0.17400
C1637       C  0.59108890  0.90199532  0.21093407    -0.27800
C1638       C  0.58789988  0.90016655  0.16395418     0.18200
C1639       C  0.62689138  0.87077969  0.13113807     0.12200
C1640       C  0.63967471  0.88511379  0.21985285    -0.12200
H1641       H  0.61119592  0.89987471  0.26351633     0.12500
C1642       C  0.57115836  0.90723773  0.14106013    -0.23000
H1643       H  0.59754548  0.88818087  0.10228400     0.08100
C1644       C  0.62397795  0.85239295  0.14140007     0.04500
C1645       C  0.63143000  0.83916841  0.11348271    -0.20200
C1646       C  0.64107869  0.84369851  0.07404816    -0.12500
C1647       C  0.64485360  0.86222021  0.06522674     0.13200
C1648       C  0.63765725  0.87552012  0.09403914    -0.23000
C1649       C  0.61192581  0.84660939  0.18001819    -0.06000
H1650       H  0.62861568  0.82513674  0.12125380     0.14700
C1651       C  0.65608736  0.86824821  0.02547198    -0.16200
H1652       H  0.63980753  0.88970609  0.08662048     0.09000
H1653       H  0.56285985  0.89578008  0.12871561     0.06900
H1654       H  0.57510148  0.91579351  0.11178512     0.08100
H1655       H  0.56287007  0.91586396  0.16350047     0.07100
H1656       H  0.65020505  0.89206798  0.19956781     0.02000
H1657       H  0.64223088  0.87036891  0.21885027     0.02500
H1658       H  0.64095628  0.88963474  0.25546728     0.06000
H1659       H  0.61063146  0.83168108  0.18214787     0.05000
H1660       H  0.59821118  0.85230939  0.17527476    -0.00800
H1661       H  0.61743554  0.85136248  0.21268621     0.00700
H1662       H  0.64904053  0.86511508  0.99335993     0.04300
H1663       H  0.66940906  0.86140737  0.02636223     0.06300
H1664       H  0.65854086  0.88305182  0.02594569     0.07100
C1665       C  0.47105670  0.92614592  0.03456144    -0.22500
C1666       C  0.48883310  0.92937942  0.04832768     0.09500
C1667       C  0.50236867  0.93244689  0.01584660     0.09900
C1668       C  0.49795907  0.93155583  0.97007012    -0.17400
C1669       C  0.48040640  0.92718380  0.95568334    -0.27800
C1670       C  0.46661033  0.92498422  0.98847684     0.18200
C1671       C  0.49391462  0.92586304  0.09563038     0.12200
C1672       C  0.52169910  0.93575436  0.02946891    -0.12200
H1673       H  0.50859961  0.93347748  0.94542855     0.12500
C1674       C  0.44729675  0.92130801  0.97559681    -0.23000
H1675       H  0.46083617  0.92364421  0.06002710     0.08100
C1676       C  0.49592679  0.93969884  0.12771970     0.04500
C1677       C  0.50382288  0.93561307  0.16967448    -0.20200
C1678       C  0.50979969  0.91798208  0.18000127    -0.12500
C1679       C  0.50683988  0.90397969  0.14788578     0.13200
C1680       C  0.49888511  0.90820746  0.10640752    -0.23000
C1681       C  0.48990749  0.95868963  0.11740129    -0.06000
H1682       H  0.50564447  0.94635703  0.19405914     0.14700
C1683       C  0.51214863  0.88453361  0.15580180    -0.16200
H1684       H  0.49718142  0.89775776  0.08112409     0.09000
H1685       H  0.43829926  0.92112416  0.00561704     0.06900
H1686       H  0.44617869  0.90791503  0.95906822     0.08100
H1687       H  0.44240099  0.93203429  0.95234628     0.07100
H1688       H  0.52691246  0.92401494  0.04887682     0.02000
H1689       H  0.52256402  0.94804504  0.05073560     0.02500
H1690       H  0.53059121  0.93774566  0.99964904     0.06000
H1691       H  0.49234737  0.96789925  0.14634346     0.05000
H1692       H  0.47524208  0.95873794  0.10984533    -0.00800
H1693       H  0.49734510  0.96402972  0.08768568     0.00700
H1694       H  0.50519585  0.87919773  0.18628870     0.04300
H1695       H  0.52700015  0.88346955  0.15969383     0.06300
H1696       H  0.50831687  0.87570387  0.12705915     0.07100
C1697       C  0.50911104  0.93636217  0.61240450    -0.22500
C1698       C  0.52348881  0.92611656  0.59564572     0.09500
C1699       C  0.53259164  0.91389683  0.62430039     0.09900
C1700       C  0.52617131  0.91114467  0.66838302    -0.17400
C1701       C  0.51094738  0.92043052  0.68398773    -0.27800
C1702       C  0.50268449  0.93365504  0.65641513     0.18200
C1703       C  0.52689120  0.92621212  0.54652304     0.12200
C1704       C  0.54862557  0.90334075  0.60765241    -0.12200
H1705       H  0.53252454  0.90116218  0.69000112     0.12500
C1706       C  0.48676690  0.94471195  0.67184318    -0.23000
H1707       H  0.50225300  0.94580153  0.59023109     0.08100
C1708       C  0.51791511  0.91378991  0.51837245     0.04500
C1709       C  0.52182196  0.91359582  0.47218978    -0.20200
C1710       C  0.53438974  0.92561776  0.45327690    -0.12500
C1711       C  0.54284511  0.93864443  0.48129430     0.13200
C1712       C  0.53909580  0.93860338  0.52785896    -0.23000
C1713       C  0.50423366  0.90067209  0.53713629    -0.06000
H1714       H  0.51518299  0.90377898  0.45073431     0.14700
C1715       C  0.55523622  0.95319663  0.46358458    -0.16200
H1716       H  0.54562582  0.94835750  0.54970013     0.09000
H1717       H  0.47516781  0.94236156  0.64890332     0.06900
H1718       H  0.49035757  0.95927421  0.67088230     0.08100
H1719       H  0.48237555  0.94139461  0.70665115     0.07100
H1720       H  0.55941349  0.91282648  0.59685246     0.02000
H1721       H  0.54469498  0.89479243  0.57850454     0.02500
H1722       H  0.55418759  0.89438891  0.63439529     0.06000
H1723       H  0.49843920  0.89194710  0.51032229     0.05000
H1724       H  0.49300047  0.90820715  0.55321081    -0.00800
H1725       H  0.51065753  0.89177991  0.56271954     0.00700
H1726       H  0.54973285  0.96664514  0.47280731     0.04300
H1727       H  0.55682503  0.95309408  0.42646431     0.06300
H1728       H  0.56877261  0.95166364  0.47911838     0.07100
C1729       C  0.46465107  0.18058212  0.18909207    -0.22500
C1730       C  0.45288099  0.17283204  0.15769324     0.09500
C1731       C  0.45660608  0.15555747  0.14005231     0.09900
C1732       C  0.47199851  0.14623254  0.15482712    -0.17400
C1733       C  0.48396850  0.15397613  0.18611729    -0.27800
C1734       C  0.48020476  0.17142195  0.20350946     0.18200
C1735       C  0.43704491  0.18331485  0.14236503     0.12200
C1736       C  0.44434378  0.14704214  0.10553071    -0.12200
H1737       H  0.47483785  0.13292522  0.14139199     0.12500
C1738       C  0.49214174  0.18029648  0.23822400    -0.23000
H1739       H  0.46165008  0.19391124  0.20220201     0.08100
C1740       C  0.42046704  0.18277620  0.16574215     0.04500
C1741       C  0.40561840  0.19228076  0.14831073    -0.20200
C1742       C  0.40712749  0.20244863  0.10837763    -0.12500
C1743       C  0.42386746  0.20303347  0.08519956     0.13200
C1744       C  0.43861692  0.19351305  0.10273231    -0.23000
C1745       C  0.41846408  0.17201677  0.20869226    -0.06000
H1746       H  0.39278060  0.19176051  0.16583214     0.14700
C1747       C  0.42612441  0.21283908  0.04077267    -0.16200
H1748       H  0.45141481  0.19369878  0.08496840     0.09000
H1749       H  0.48650626  0.19338569  0.24984218     0.06900
H1750       H  0.50562694  0.18309738  0.22351779     0.08100
H1751       H  0.49353798  0.17135584  0.26821926     0.07100
H1752       H  0.44377083  0.15565098  0.07477934     0.02000
H1753       H  0.43055370  0.14561725  0.11972775     0.02500
H1754       H  0.44914668  0.13343624  0.09537421     0.06000
H1755       H  0.40457827  0.17294208  0.22258143     0.05000
H1756       H  0.42797543  0.17720300  0.23456376    -0.00800
H1757       H  0.42147556  0.15757566  0.20206189     0.00700
H1758       H  0.42422386  0.22757215  0.04557802     0.04300
H1759       H  0.41618568  0.20768128  0.01587165     0.06300
H1760       H  0.43979795  0.21084525  0.02629609     0.07100
C1761       C  0.50629910  0.09013198  0.90919627    -0.22500
C1762       C  0.51757720  0.10317507  0.92853928     0.09500
C1763       C  0.52284470  0.11843325  0.90326039     0.09900
C1764       C  0.51598821  0.12075784  0.85965915    -0.17400
C1765       C  0.50366173  0.10840913  0.84126656    -0.27800
C1766       C  0.49889582  0.09269670  0.86607299     0.18200
C1767       C  0.52079053  0.10257133  0.97761383     0.12200
C1768       C  0.53486978  0.13275219  0.92329668    -0.12200
H1769       H  0.51967700  0.13270767  0.84046630     0.12500
C1770       C  0.48502671  0.07913117  0.85046196    -0.23000
H1771       H  0.50210380  0.07861083  0.92934248     0.08100
C1772       C  0.50764148  0.10932160  0.00742845     0.04500
C1773       C  0.51156390  0.11039082  0.05341204    -0.20200
C1774       C  0.52839441  0.10498613  0.07067255    -0.12500
C1775       C  0.54153674  0.09791022  0.04056960     0.13200
C1776       C  0.53748530  0.09677574  0.99424540    -0.23000
C1777       C  0.48959069  0.11590300  0.99056403    -0.06000
H1778       H  0.50142510  0.11590371  0.07586239     0.14700
C1779       C  0.55974027  0.09146448  0.05649462    -0.16200
H1780       H  0.54747437  0.09173059  0.97070674     0.09000
H1781       H  0.47415938  0.07803557  0.87617020     0.06900
H1782       H  0.49147881  0.06569380  0.84659084     0.08100
H1783       H  0.47841626  0.08270561  0.81822696     0.07100
H1784       H  0.54801586  0.12671060  0.93293594     0.02000
H1785       H  0.52839482  0.13861457  0.95375944     0.02500
H1786       H  0.53750003  0.14391425  0.89900856     0.06000
H1787       H  0.48102023  0.12108639  0.01846338     0.05000
H1788       H  0.48222784  0.10465452  0.97406166    -0.00800
H1789       H  0.49156303  0.12703091  0.96581570     0.00700
H1790       H  0.56780615  0.08565623  0.02842844     0.04300
H1791       H  0.55803202  0.08078972  0.08259006     0.06300
H1792       H  0.56754155  0.10294494  0.07058580     0.07100
C1793       C  0.49882410  0.11959425  0.42454485    -0.22500
C1794       C  0.49039542  0.10300833  0.43214976     0.09500
C1795       C  0.48819066  0.09076125  0.39627335     0.09900
C1796       C  0.49481134  0.09539915  0.35318628    -0.17400
C1797       C  0.50351313  0.11207304  0.34533143    -0.27800
C1798       C  0.50546892  0.12435390  0.38196302     0.18200
C1799       C  0.48462024  0.09910144  0.47892295     0.12200
C1800       C  0.47905898  0.07283897  0.40372924    -0.12200
H1801       H  0.49319741  0.08592735  0.32560733     0.12500
C1802       C  0.51491363  0.14234689  0.37766563    -0.23000
H1803       H  0.50041868  0.12883126  0.45269461     0.08100
C1804       C  0.49745265  0.09441568  0.51198475     0.04500
C1805       C  0.49282972  0.09577116  0.55766583    -0.20200
C1806       C  0.47567418  0.10179670  0.57124385    -0.12500
C1807       C  0.46229035  0.10486292  0.53789589     0.13200
C1808       C  0.46703891  0.10363578  0.49199253    -0.23000
C1809       C  0.51625611  0.08867480  0.49901785    -0.06000
H1810       H  0.50297016  0.09276346  0.58296629     0.14700
C1811       C  0.44330663  0.11020573  0.55001803    -0.16200
H1812       H  0.45729317  0.10719353  0.46615247     0.09000
H1813       H  0.51575404  0.14954696  0.41049344     0.06900
H1814       H  0.50743068  0.15127436  0.35404421     0.08100
H1815       H  0.52891078  0.14027304  0.36564367     0.07100
H1816       H  0.46505366  0.07504746  0.41578009     0.02000
H1817       H  0.48657763  0.06493006  0.42947974     0.02500
H1818       H  0.47846858  0.06477877  0.37215265     0.06000
H1819       H  0.52453774  0.08527091  0.52912857     0.05000
H1820       H  0.52317173  0.09972975  0.48044702    -0.00800
H1821       H  0.51556568  0.07653899  0.47711676     0.00700
H1822       H  0.43491533  0.11261601  0.51950852     0.04300
H1823       H  0.44341611  0.12280630  0.57011696     0.06300
H1824       H  0.43684279  0.09923785  0.56990590     0.07100
C1825       C  0.56654690  0.03873593  0.26933057    -0.22500
C1826       C  0.55474170  0.02553013  0.25298152     0.09500
C1827       C  0.54088738  0.03041370  0.22278784     0.09900
C1828       C  0.53868570  0.04861221  0.21094743    -0.17400
C1829       C  0.55001152  0.06213005  0.22857374    -0.27800
C1830       C  0.56447762  0.05700248  0.25730617     0.18200
C1831       C  0.55603637  0.00689201  0.27070090     0.12200
C1832       C  0.52821370  0.01643005  0.20378041    -0.12200
H1833       H  0.52781113  0.05232161  0.18827573     0.12500
C1834       C  0.57744994  0.07060475  0.27667810    -0.23000
H1835       H  0.57716450  0.03474610  0.29245896     0.08100
C1836       C  0.56681750  0.99365501  0.24979496     0.04500
C1837       C  0.56585389  0.97570111  0.26510311    -0.20200
C1838       C  0.55434077  0.97080451  0.30082126    -0.12500
C1839       C  0.54458931  0.98445463  0.32390165     0.13200
C1840       C  0.54540773  0.00226740  0.30804329    -0.23000
C1841       C  0.57892394  0.99842941  0.21070603    -0.06000
H1842       H  0.57346124  0.96532147  0.24772640     0.14700
C1843       C  0.53340118  0.98096951  0.36565802    -0.16200
H1844       H  0.53747921  0.01263692  0.32458167     0.09000
H1845       H  0.58507202  0.07718481  0.24886212     0.06900
H1846       H  0.58743592  0.06418763  0.29960864     0.08100
H1847       H  0.56998867  0.08092739  0.29640540     0.07100
H1848       H  0.52075052  0.00969624  0.23165708     0.02000
H1849       H  0.53598532  0.00613543  0.18475302     0.02500
H1850       H  0.51819004  0.02252238  0.18040233     0.06000
H1851       H  0.58641162  0.98646224  0.19812504     0.05000
H1852       H  0.58890354  0.00873057  0.22154131    -0.00800
H1853       H  0.57078443  0.00396419  0.18241670     0.00700
H1854       H  0.53804416  0.98996983  0.39329140     0.04300
H1855       H  0.53446792  0.96698832  0.37857206     0.06300
H1856       H  0.51901675  0.98393731  0.35839183     0.07100
C1857       C  0.92331790  0.73255214  0.08386845    -0.22500
C1858       C  0.91678134  0.72188649  0.11940390     0.09500
C1859       C  0.90015138  0.72621162  0.13983657     0.09900
C1860       C  0.89021110  0.74100223  0.12360308    -0.17400
C1861       C  0.89670996  0.75180664  0.08801499    -0.27800
C1862       C  0.91352976  0.74750324  0.06789216     0.18200
C1863       C  0.92761462  0.70625812  0.13493806     0.12200
C1864       C  0.89298916  0.71526722  0.17893311    -0.12200
H1865       H  0.87740446  0.74430534  0.13921544     0.12500
C1866       C  0.92099962  0.75815501  0.02861041    -0.23000
H1867       H  0.93612059  0.72908585  0.06850537     0.08100
C1868       C  0.92511307  0.68886641  0.11669935     0.04500
C1869       C  0.93486450  0.67424986  0.13461208    -0.20200
C1870       C  0.94727630  0.67665726  0.17001704    -0.12500
C1871       C  0.95019740  0.69437859  0.18711346     0.13200
C1872       C  0.94027643  0.70888532  0.16927797    -0.23000
C1873       C  0.91203820  0.68576587  0.07857020    -0.06000
H1874       H  0.93264811  0.66083035  0.12112986     0.14700
C1875       C  0.96311377  0.69819989  0.22531241    -0.16200
H1876       H  0.94212426  0.72237309  0.18277843     0.09000
H1877       H  0.93367294  0.75214702  0.01546069     0.06900
H1878       H  0.92412719  0.77216503  0.03931697     0.08100
H1879       H  0.91104536  0.75840196  0.00058188     0.07100
H1880       H  0.90266729  0.71580229  0.20751996     0.02000
H1881       H  0.89112351  0.70099426  0.16852768     0.02500
H1882       H  0.87980233  0.72047300  0.19103059     0.06000
H1883       H  0.91168473  0.67136356  0.06817797     0.05000
H1884       H  0.91608620  0.69399574  0.04882054    -0.00800
H1885       H  0.89824285  0.68973200  0.08916799     0.00700
H1886       H  0.97709353  0.69484910  0.21487512     0.04300
H1887       H  0.95927904  0.69017404  0.25558343     0.06300
H1888       H  0.96300719  0.71267371  0.23513722     0.07100
C1889       C  0.91836392  0.64815263  0.39487661    -0.22500
C1890       C  0.90094880  0.65150782  0.37846896     0.09500
C1891       C  0.89649423  0.64626548  0.33392790     0.09900
C1892       C  0.91003558  0.63921480  0.30568381    -0.17400
C1893       C  0.92782631  0.63732998  0.32118752    -0.27800
C1894       C  0.93175033  0.64084410  0.36706410     0.18200
C1895       C  0.88913412  0.66348563  0.40563286     0.12200
C1896       C  0.87761461  0.64848420  0.31594964    -0.12200
H1897       H  0.90700527  0.63632463  0.27060641     0.12500
C1898       C  0.94999326  0.63727216  0.38753343    -0.23000
H1899       H  0.92184167  0.65213541  0.42902887     0.08100
C1900       C  0.88304170  0.65879106  0.44930932     0.04500
C1901       C  0.87607352  0.67232957  0.47761387    -0.20200
C1902       C  0.87519069  0.69047917  0.46331914    -0.12500
C1903       C  0.87936246  0.69461114  0.41757283     0.13200
C1904       C  0.88651658  0.68111864  0.38979290    -0.23000
C1905       C  0.88412272  0.63961091  0.46622629    -0.06000
H1906       H  0.87230883  0.66883663  0.51194079     0.14700
C1907       C  0.87692768  0.71321106  0.39754994    -0.16200
H1908       H  0.89121070  0.68466362  0.35620946     0.09000
H1909       H  0.94845206  0.62845247  0.41771192     0.06900
H1910       H  0.95631503  0.65020822  0.39792682     0.08100
H1911       H  0.95911342  0.63019203  0.36394813     0.07100
H1912       H  0.87375942  0.66294524  0.31504552     0.02000
H1913       H  0.86802609  0.64101551  0.33796390     0.02500
H1914       H  0.87634498  0.64311222  0.28108431     0.06000
H1915       H  0.87818620  0.63819401  0.50053113     0.05000
H1916       H  0.89835709  0.63510565  0.46801743    -0.00800
H1917       H  0.87657101  0.63060792  0.44298659     0.00700
H1918       H  0.87882054  0.71321060  0.36030196     0.04300
H1919       H  0.88709522  0.72260380  0.41171185     0.06300
H1920       H  0.86307744  0.71819374  0.40448496     0.07100
C1921       C  0.96977874  0.54082370  0.29884901    -0.22500
C1922       C  0.96026139  0.53005657  0.26826370     0.09500
C1923       C  0.95233464  0.53797107  0.22975136     0.09900
C1924       C  0.95460756  0.55654730  0.22185655    -0.17400
C1925       C  0.96495531  0.56727601  0.25120163    -0.27800
C1926       C  0.97235030  0.55932400  0.29081130     0.18200
C1927       C  0.96019358  0.51028167  0.27537288     0.12200
C1928       C  0.94194464  0.52667348  0.19645401    -0.12200
H1929       H  0.94892077  0.56254345  0.19159409     0.12500
C1930       C  0.98284018  0.57013903  0.32508386    -0.23000
H1931       H  0.97575373  0.53454172  0.32839817     0.08100
C1932       C  0.97456230  0.49960992  0.25963593     0.04500
C1933       C  0.97451171  0.48104420  0.26839159    -0.20200
C1934       C  0.96045481  0.47269069  0.29281418    -0.12500
C1935       C  0.94583461  0.48352183  0.30807470     0.13200
C1936       C  0.94596282  0.50220721  0.29909064    -0.23000
C1937       C  0.99003801  0.50784799  0.23368426    -0.06000
H1938       H  0.98576254  0.47307428  0.25628168     0.14700
C1939       C  0.93012100  0.47577475  0.33402889    -0.16200
H1940       H  0.93500495  0.51063787  0.31095940     0.09000
H1941       H  0.99580025  0.57482526  0.31041895     0.06900
H1942       H  0.98616149  0.56199351  0.35553667     0.08100
H1943       H  0.97471522  0.58190748  0.33618388     0.07100
H1944       H  0.93032591  0.52017634  0.21372003     0.02000
H1945       H  0.95082089  0.51603461  0.18223498     0.02500
H1946       H  0.93668378  0.53493639  0.16799432     0.06000
H1947       H  0.00016459  0.49755001  0.22369730     0.05000
H1948       H  0.99694223  0.51810431  0.25482477    -0.00800
H1949       H  0.98491764  0.51440493  0.20245371     0.00700
H1950       H  0.91999060  0.48627943  0.34253654     0.04300
H1951       H  0.93489860  0.46978163  0.36630067     0.06300
H1952       H  0.92322181  0.46534336  0.31339718     0.07100
C1953       C  0.07708875  0.34349359  0.35799444    -0.22500
C1954       C  0.06495415  0.35147827  0.38826233     0.09500
C1955       C  0.06816189  0.35051113  0.43508528     0.09900
C1956       C  0.08395231  0.34229079  0.45057940    -0.17400
C1957       C  0.09642387  0.33454102  0.42050012    -0.27800
C1958       C  0.09262221  0.33458294  0.37353578     0.18200
C1959       C  0.04900862  0.36105479  0.37056626     0.12200
C1960       C  0.05488033  0.35807948  0.46870002    -0.12200
H1961       H  0.08662644  0.34203381  0.48661256     0.12500
C1962       C  0.10391263  0.32473815  0.33904413    -0.23000
H1963       H  0.07423782  0.34395133  0.32206599     0.08100
C1964       C  0.04928166  0.37989827  0.36414490     0.04500
C1965       C  0.03347043  0.38869837  0.35068779    -0.20200
C1966       C  0.01735047  0.37910998  0.34350902    -0.12500
C1967       C  0.01712066  0.36012504  0.35025582     0.13200
C1968       C  0.03309100  0.35133677  0.36307991    -0.23000
C1969       C  0.06628647  0.39068724  0.37136096    -0.06000
H1970       H  0.03375708  0.40318594  0.34528281     0.14700
C1971       C  0.00032627  0.34872607  0.34677554    -0.16200
H1972       H  0.03298724  0.33686700  0.36886490     0.09000
H1973       H  0.11013702  0.33463581  0.31548959     0.06900
H1974       H  0.09515496  0.31546539  0.31936560     0.08100
H1975       H  0.11464845  0.31626559  0.35397143     0.07100
H1976       H  0.04165315  0.35123353  0.46469692     0.02000
H1977       H  0.05310280  0.37279285  0.46310790     0.02500
H1978       H  0.05945764  0.35603796  0.50409172     0.06000
H1979       H  0.06417369  0.40529073  0.36449506     0.05000
H1980       H  0.07701191  0.38573577  0.34832993    -0.00800
H1981       H  0.07093821  0.38924782  0.40682043     0.00700
H1982       H  0.00174587  0.33905606  0.31838039     0.04300
H1983       H  0.98791352  0.35668489  0.34182547     0.06300
H1984       H  0.99844922  0.34098070  0.37863281     0.07100
C1985       C  0.93692858  0.68443448  0.61573415    -0.22500
C1986       C  0.94258105  0.68955409  0.65895269     0.09500
C1987       C  0.93230981  0.70206269  0.68403655     0.09900
C1988       C  0.91656098  0.70937559  0.66490235    -0.17400
C1989       C  0.91111136  0.70449784  0.62121523    -0.27800
C1990       C  0.92127104  0.69170216  0.59655062     0.18200
C1991       C  0.95885353  0.68079867  0.67771826     0.12200
C1992       C  0.93804319  0.70768169  0.73073182    -0.12200
H1993       H  0.90871591  0.71919927  0.68358055     0.12500
C1994       C  0.91529208  0.68519265  0.55065723    -0.23000
H1995       H  0.94475439  0.67455130  0.59715931     0.08100
C1996       C  0.95767590  0.66388371  0.69929528     0.04500
C1997       C  0.97348592  0.65522970  0.71328814    -0.20200
C1998       C  0.99059180  0.66294041  0.70581294    -0.12500
C1999       C  0.99170942  0.68014571  0.68465386     0.13200
C2000       C  0.97575544  0.68882291  0.67082899    -0.23000
C2001       C  0.93971419  0.65481314  0.70682317    -0.06000
H2002       H  0.97241952  0.64219413  0.72982262     0.14700
C2003       C  0.00950404  0.68926537  0.67521951    -0.16200
H2004       H  0.97644286  0.70178737  0.65376789     0.09000
H2005       H  0.92434150  0.67451554  0.53727346     0.06900
H2006       H  0.91530027  0.69651200  0.52602343     0.08100
H2007       H  0.90150401  0.67944273  0.55319735     0.07100
H2008       H  0.95160478  0.71401798  0.72922213     0.02000
H2009       H  0.93858958  0.69568751  0.75327890     0.02500
H2010       H  0.92851510  0.71758151  0.74567261     0.06000
H2011       H  0.94119207  0.64162118  0.72439433     0.05000
H2012       H  0.93303105  0.65233838  0.67384914    -0.00800
H2013       H  0.93094971  0.66357699  0.72782765     0.00700
H2014       H  0.00772887  0.70224104  0.65682332     0.04300
H2015       H  0.01808904  0.68041368  0.65405079     0.06300
H2016       H  0.01650180  0.69229514  0.70746751     0.07100
C2017       C  0.03126298  0.62491926  0.41341658    -0.22500
C2018       C  0.02025823  0.61711838  0.44660643     0.09500
C2019       C  0.00284828  0.61090758  0.43547419     0.09900
C2020       C  0.99662779  0.61302882  0.39123969    -0.17400
C2021       C  0.00739498  0.62128766  0.35828151    -0.27800
C2022       C  0.02500404  0.62717966  0.36912650     0.18200
C2023       C  0.02626087  0.61747860  0.49390522     0.12200
C2024       C  0.99070475  0.60247980  0.47053121    -0.12200
H2025       H  0.98314349  0.60858655  0.38252457     0.12500
C2026       C  0.03714150  0.63671905  0.33580272    -0.23000
H2027       H  0.04452117  0.62989428  0.42257479     0.08100
C2028       C  0.03640966  0.60332352  0.51309742     0.04500
C2029       C  0.04022825  0.60371107  0.55952962    -0.20200
C2030       C  0.03382022  0.61783324  0.58662630    -0.12500
C2031       C  0.02431563  0.63238746  0.56676966     0.13200
C2032       C  0.02070925  0.63203350  0.52048001    -0.23000
C2033       C  0.04283186  0.58775979  0.48470778    -0.06000
H2034       H  0.04767397  0.59271289  0.57497733     0.14700
C2035       C  0.01823559  0.64847118  0.59402725    -0.16200
H2036       H  0.01310575  0.64292353  0.50501848     0.09000
H2037       H  0.04985209  0.62896641  0.33186310     0.06900
H2038       H  0.04042285  0.65042015  0.34861928     0.08100
H2039       H  0.03102427  0.63834021  0.30194204     0.07100
H2040       H  0.98794589  0.61232889  0.49789644     0.02000
H2041       H  0.99730856  0.59034966  0.48515280     0.02500
H2042       H  0.97757488  0.59826334  0.45587278     0.06000
H2043       H  0.05052776  0.57777605  0.50507165     0.05000
H2044       H  0.05175786  0.59285934  0.45736653    -0.00800
H2045       H  0.03110232  0.58074302  0.46940044     0.00700
H2046       H  0.01218134  0.65912811  0.57233930     0.04300
H2047       H  0.02998049  0.65443927  0.61186014     0.06300
H2048       H  0.00786169  0.64434008  0.61900431     0.07100
C2049       C  0.97337140  0.60575826  0.00600269    -0.22500
C2050       C  0.99157391  0.60639195  0.99350509     0.09500
C2051       C  0.00510207  0.60612092  0.02684528     0.09900
C2052       C  0.00009177  0.60620941  0.07231863    -0.17400
C2053       C  0.98188245  0.60715108  0.08525944    -0.27800
C2054       C  0.96829490  0.60610974  0.05171853     0.18200
C2055       C  0.99628273  0.61034303  0.94622655     0.12200
C2056       C  0.02482880  0.60662055  0.01442812    -0.12200
H2057       H  0.01054571  0.60659066  0.09783736     0.12500
C2058       C  0.94854879  0.60527119  0.06361020    -0.23000
H2059       H  0.96313549  0.60585009  0.97985880     0.08100
C2060       C  0.00003869  0.59668090  0.91472320     0.04500
C2061       C  0.00652415  0.60153043  0.87184359    -0.20200
C2062       C  0.00941247  0.61976971  0.85999830    -0.12500
C2063       C  0.00492445  0.63347665  0.89173424     0.13200
C2064       C  0.99838275  0.62847107  0.93426142    -0.23000
C2065       C  0.99742900  0.57706929  0.92666744    -0.06000
H2066       H  0.00971393  0.59095349  0.84792002     0.14700
C2067       C  0.00692878  0.65341496  0.88200080    -0.16200
H2068       H  0.99536043  0.63878056  0.95915118     0.09000
H2069       H  0.94004513  0.60311050  0.03319915     0.06900
H2070       H  0.94417266  0.61812556  0.07933711     0.08100
H2071       H  0.94608260  0.59387013  0.08729840     0.07100
H2072       H  0.02789698  0.61918271  0.99533779     0.02000
H2073       H  0.02821982  0.59476107  0.99319899     0.02500
H2074       H  0.03361749  0.60631475  0.04480996     0.06000
H2075       H  0.00095883  0.56807326  0.89801505     0.05000
H2076       H  0.98310378  0.57462787  0.93576081    -0.00800
H2077       H  0.00610167  0.57342267  0.95585156     0.00700
H2078       H  0.99894786  0.65711945  0.85162193     0.04300
H2079       H  0.02134941  0.65686448  0.87690603     0.06300
H2080       H  0.00198667  0.66186585  0.91039682     0.07100
C2081       C  0.00788453  0.43435640  0.01663533    -0.22500
C2082       C  0.01967768  0.42497372  0.04523484     0.09500
C2083       C  0.03600741  0.41810607  0.02785004     0.09900
C2084       C  0.03978355  0.42009293  0.98158708    -0.17400
C2085       C  0.02747466  0.42858592  0.95236864    -0.27800
C2086       C  0.01159674  0.43635301  0.97043068     0.18200
C2087       C  0.01385202  0.42144371  0.09233588     0.12200
C2088       C  0.04934313  0.40858179  0.05798728    -0.12200
H2089       H  0.05201909  0.41428350  0.96784646     0.12500
C2090       C  0.99862592  0.44698286  0.94152512    -0.23000
H2091       H  0.99544149  0.43970396  0.03039703     0.08100
C2092       C  0.01305183  0.43530415  0.12490380     0.04500
C2093       C  0.00568225  0.43157192  0.16764679    -0.20200
C2094       C  0.99892064  0.41434883  0.17833183    -0.12500
C2095       C  0.00037995  0.40028731  0.14609498     0.13200
C2096       C  0.00777011  0.40407309  0.10346349    -0.23000
C2097       C  0.02000095  0.45398527  0.11455380    -0.06000
H2098       H  0.00474974  0.44229588  0.19244473     0.14700
C2099       C  0.99458205  0.38118576  0.15651601    -0.16200
H2100       H  0.00847746  0.39351090  0.07821140     0.09000
H2101       H  0.00596593  0.45797201  0.92375547     0.06900
H2102       H  0.98779782  0.45327478  0.96209621     0.08100
H2103       H  0.99200612  0.43804585  0.91650065     0.07100
H2104       H  0.04314788  0.39624661  0.07267295     0.02000
H2105       H  0.05352969  0.41774386  0.08572780     0.02500
H2106       H  0.06161287  0.40444668  0.03912443     0.06000
H2107       H  0.01878346  0.46308339  0.14419343     0.05000
H2108       H  0.01221079  0.46003919  0.08633417    -0.00800
H2109       H  0.03445066  0.45323812  0.10489274     0.00700
H2110       H  0.97975725  0.38056353  0.16128064     0.04300
H2111       H  0.00147986  0.37633539  0.18756851     0.06300
H2112       H  0.99804775  0.37178841  0.12862559     0.07100
C2113       C  0.96932430  0.41926140  0.53257650    -0.22500
C2114       C  0.98315030  0.43108534  0.54512423     0.09500
C2115       C  0.99113024  0.44242576  0.51247726     0.09900
C2116       C  0.98554827  0.44118498  0.46737686    -0.17400
C2117       C  0.97235834  0.42863096  0.45389244    -0.27800
C2118       C  0.96382574  0.41775664  0.48735856     0.18200
C2119       C  0.99111593  0.42907803  0.59056648     0.12200
C2120       C  0.00586505  0.45549805  0.52512153    -0.12200
H2121       H  0.99198451  0.44971343  0.44227355     0.12500
C2122       C  0.94966810  0.40383647  0.47595470    -0.23000
H2123       H  0.96348717  0.41046667  0.55805813     0.08100
C2124       C  0.98343694  0.43686067  0.62949030     0.04500
C2125       C  0.99158102  0.43379208  0.67174164    -0.20200
C2126       C  0.00700041  0.42284432  0.67565455    -0.12500
C2127       C  0.01470711  0.41527638  0.63618393     0.13200
C2128       C  0.00663250  0.41849078  0.59427950    -0.23000
C2129       C  0.96670661  0.44828537  0.62630071    -0.06000
H2130       H  0.98565588  0.43958399  0.70189051     0.14700
C2131       C  0.03186180  0.40442631  0.63740782    -0.16200
H2132       H  0.01240558  0.41264272  0.56400119     0.09000
H2133       H  0.93765827  0.41054294  0.46113581     0.06900
H2134       H  0.94506988  0.39629442  0.50635639     0.08100
H2135       H  0.95523101  0.39382677  0.45177994     0.07100
H2136       H  0.01765979  0.44805422  0.53877336     0.02000
H2137       H  0.00080110  0.46499827  0.55117308     0.02500
H2138       H  0.01050176  0.46353054  0.49555797     0.06000
H2139       H  0.96251739  0.45346138  0.65990260     0.05000
H2140       H  0.95544399  0.44014552  0.61232745    -0.00800
H2141       H  0.96925802  0.46002543  0.60375366     0.00700
H2142       H  0.02979580  0.39162374  0.65626727     0.04300
H2143       H  0.04255955  0.41262889  0.65361981     0.06300
H2144       H  0.03659160  0.40077885  0.60299344     0.07100
C2145       C  0.06476054  0.54353387  0.78618752    -0.22500
C2146       C  0.05363028  0.53107843  0.76391794     0.09500
C2147       C  0.04152698  0.53725219  0.73053583     0.09900
C2148       C  0.04092586  0.55570919  0.71984304    -0.17400
C2149       C  0.05187556  0.56835389  0.74225802    -0.27800
C2150       C  0.06399343  0.56213660  0.77597824     0.18200
C2151       C  0.05358812  0.51182990  0.77831844     0.12200
C2152       C  0.02877689  0.52442099  0.70724513    -0.12200
H2153       H  0.03152755  0.56034854  0.69424804     0.12500
C2154       C  0.07545751  0.57503335  0.80290436    -0.23000
H2155       H  0.07375726  0.53870666  0.81241576     0.08100
C2156       C  0.06335056  0.49845776  0.75478656     0.04500
C2157       C  0.06085618  0.48013898  0.76610031    -0.20200
C2158       C  0.04872223  0.47491499  0.80023543    -0.12500
C2159       C  0.03972869  0.48848421  0.82543616     0.13200
C2160       C  0.04230697  0.50674250  0.81410910    -0.23000
C2161       C  0.07626961  0.50354679  0.71759397    -0.06000
H2162       H  0.06797641  0.46982704  0.74723933     0.14700
C2163       C  0.02759344  0.48391951  0.86477384    -0.16200
H2164       H  0.03504570  0.51712327  0.83234880     0.09000
H2165       H  0.08515659  0.58204137  0.78029147     0.06900
H2166       H  0.08336741  0.56791583  0.82936757     0.08100
H2167       H  0.06673850  0.58514230  0.81993899     0.07100
H2168       H  0.01991801  0.51781936  0.73265005     0.02000
H2169       H  0.03648435  0.51389573  0.68892835     0.02500
H2170       H  0.02004195  0.53150417  0.68240222     0.06000
H2171       H  0.08286775  0.49147481  0.70273137     0.05000
H2172       H  0.08694122  0.51251076  0.73132109    -0.00800
H2173       H  0.06903098  0.51076337  0.69017287     0.00700
H2174       H  0.02294638  0.49623408  0.88269703     0.04300
H2175       H  0.03498670  0.47536704  0.88947054     0.06300
H2176       H  0.01540602  0.47669219  0.85276957     0.07100
C2177       C  0.06942814  0.33523332  0.89067480    -0.22500
C2178       C  0.08676665  0.33733774  0.90849641     0.09500
C2179       C  0.09466663  0.35467821  0.91002221     0.09900
C2180       C  0.08520661  0.36950129  0.89212671    -0.17400
C2181       C  0.06820971  0.36725133  0.87196619    -0.27800
C2182       C  0.06004718  0.34993694  0.87224706     0.18200
C2183       C  0.09684863  0.32089986  0.92176370     0.12200
C2184       C  0.11311833  0.35746560  0.93007303    -0.12200
H2185       H  0.09143929  0.38275421  0.89211572     0.12500
C2186       C  0.04145575  0.34679678  0.85334402    -0.23000
H2187       H  0.06346881  0.32185953  0.88982765     0.08100
C2188       C  0.09301567  0.31141119  0.96195377     0.04500
C2189       C  0.10233352  0.29533225  0.97139940    -0.20200
C2190       C  0.11559588  0.28857176  0.94181686    -0.12500
C2191       C  0.11938371  0.29827568  0.90140302     0.13200
C2192       C  0.10984379  0.31420193  0.89191287    -0.23000
C2193       C  0.07933056  0.31843212  0.99517781    -0.06000
H2194       H  0.09942724  0.28818973  0.00257334     0.14700
C2195       C  0.13318063  0.29199327  0.86754243    -0.16200
H2196       H  0.11248744  0.32153408  0.86082784     0.09000
H2197       H  0.03171587  0.35620682  0.86935240     0.06900
H2198       H  0.03669188  0.33279205  0.85974025     0.08100
H2199       H  0.04157043  0.34885999  0.81622222     0.07100
H2200       H  0.12328054  0.34963514  0.91078452     0.02000
H2201       H  0.11314565  0.35287324  0.96582583     0.02500
H2202       H  0.11718077  0.37190859  0.92923874     0.06000
H2203       H  0.07820878  0.30956093  0.02538132     0.05000
H2204       H  0.06585637  0.31917773  0.97899018    -0.00800
H2205       H  0.08335432  0.33212450  0.00665766     0.00700
H2206       H  0.12999852  0.27802101  0.85653708     0.04300
H2207       H  0.14683204  0.29254173  0.88279622     0.06300
H2208       H  0.13344217  0.30070204  0.83692037     0.07100
C2209       C  0.11771589  0.39728576  0.69738336    -0.22500
C2210       C  0.11288080  0.38884144  0.65686628     0.09500
C2211       C  0.09461336  0.38830956  0.64372889     0.09900
C2212       C  0.08154194  0.39560774  0.67228925    -0.17400
C2213       C  0.08598383  0.40299149  0.71463531    -0.27800
C2214       C  0.10451859  0.40437913  0.72664432     0.18200
C2215       C  0.12609211  0.37739778  0.63294645     0.12200
C2216       C  0.08862429  0.37871953  0.60123143    -0.12200
H2217       H  0.06758441  0.39426435  0.66253435     0.12500
C2218       C  0.11062113  0.41238685  0.77085541    -0.23000
H2219       H  0.13178705  0.39735893  0.70731798     0.08100
C2220       C  0.13240299  0.38187876  0.58948507     0.04500
C2221       C  0.13833179  0.36800558  0.56086186    -0.20200
C2222       C  0.13813346  0.34982788  0.57516046    -0.12500
C2223       C  0.13463749  0.34596883  0.62145600     0.13200
C2224       C  0.12860964  0.35988913  0.64963607    -0.23000
C2225       C  0.13219347  0.40114960  0.57301887    -0.06000
H2226       H  0.14188788  0.37129554  0.52627867     0.14700
C2227       C  0.13639585  0.32725977  0.64145843    -0.16200
H2228       H  0.12417316  0.35673625  0.68370972     0.09000
H2229       H  0.12555666  0.41272016  0.77359805     0.06900
H2230       H  0.10548643  0.40414090  0.79949728     0.08100
H2231       H  0.10568287  0.42649443  0.77372215     0.07100
H2232       H  0.09278126  0.36432045  0.60253351     0.02000
H2233       H  0.09469693  0.38519611  0.57103816     0.02500
H2234       H  0.07374823  0.37910309  0.59696542     0.06000
H2235       H  0.13759204  0.40232507  0.53811338     0.05000
H2236       H  0.14069871  0.40955104  0.59559130    -0.00800
H2237       H  0.11827489  0.40660849  0.57318145     0.00700
H2238       H  0.13507627  0.32744554  0.67886001     0.04300
H2239       H  0.14985650  0.32156872  0.63327765     0.06300
H2240       H  0.12560283  0.31827845  0.62850642     0.07100
C2241       C  0.12094546  0.89511299  0.33474308    -0.22500
C2242       C  0.11587252  0.88709953  0.37587161     0.09500
C2243       C  0.09757645  0.88721441  0.38883023     0.09900
C2244       C  0.08472298  0.89466674  0.35971957    -0.17400
C2245       C  0.08946392  0.90194031  0.31751958    -0.27800
C2246       C  0.10796847  0.90244393  0.30508103     0.18200
C2247       C  0.12916448  0.87665829  0.40289217     0.12200
C2248       C  0.09132171  0.87841329  0.43216863    -0.12200
H2249       H  0.07071854  0.89369446  0.36874576     0.12500
C2250       C  0.11460869  0.90923548  0.25996970    -0.23000
H2251       H  0.13500274  0.89481807  0.32470655     0.08100
C2252       C  0.13345248  0.85868997  0.39113969     0.04500
C2253       C  0.14145516  0.84736645  0.42348773    -0.20200
C2254       C  0.14499080  0.85346970  0.46749560    -0.12500
C2255       C  0.14213493  0.87190190  0.47797522     0.13200
C2256       C  0.13446076  0.88331956  0.44519966    -0.23000
C2257       C  0.12829731  0.85104118  0.34576828    -0.06000
H2258       H  0.14360443  0.83322581  0.41558096     0.14700
C2259       C  0.14544263  0.87968167  0.52423570    -0.16200
H2260       H  0.13112238  0.89712061  0.45410522     0.09000
H2261       H  0.12152464  0.89809158  0.24185035     0.06900
H2262       H  0.12438472  0.92039076  0.26537349     0.08100
H2263       H  0.10383558  0.91433160  0.23765290     0.07100
H2264       H  0.09760823  0.88522029  0.46158014     0.02000
H2265       H  0.09512078  0.86390263  0.43227246     0.02500
H2266       H  0.07646378  0.87927763  0.43633331     0.06000
H2267       H  0.13234236  0.83665435  0.34249134     0.05000
H2268       H  0.13508034  0.85880679  0.31848913    -0.00800
H2269       H  0.11346398  0.85186215  0.34110245     0.00700
H2270       H  0.15490222  0.89126226  0.52142770     0.04300
H2271       H  0.15134319  0.86987116  0.54824812     0.06300
H2272       H  0.13250312  0.88455758  0.53863707     0.07100
C2273       C  0.08986168  0.86337479  0.65460927    -0.22500
C2274       C  0.07300990  0.85534984  0.64752240     0.09500
C2275       C  0.07199312  0.83823365  0.62704620     0.09900
C2276       C  0.08791227  0.82963509  0.61333866    -0.17400
C2277       C  0.10497417  0.83770388  0.61947208    -0.27800
C2278       C  0.10588400  0.85482308  0.64108443     0.18200
C2279       C  0.05658736  0.86511175  0.66212059     0.12200
C2280       C  0.05411149  0.82896988  0.61997084    -0.12200
H2281       H  0.08689260  0.81658727  0.59702703     0.12500
C2282       C  0.12347899  0.86434641  0.65026618    -0.23000
H2283       H  0.09042195  0.87651600  0.67061280     0.08100
C2284       C  0.05166404  0.86604222  0.70808110     0.04500
C2285       C  0.03597534  0.87538732  0.72031228    -0.20200
C2286       C  0.02510488  0.88386752  0.68769307    -0.12500
C2287       C  0.02984631  0.88257155  0.64140454     0.13200
C2288       C  0.04571290  0.87343177  0.62937653    -0.23000
C2289       C  0.06290401  0.85709046  0.74415292    -0.06000
H2290       H  0.03233956  0.87636614  0.75572553     0.14700
C2291       C  0.01825666  0.88991628  0.60367222    -0.16200
H2292       H  0.04949172  0.87250725  0.59403088     0.09000
H2293       H  0.12145987  0.87716303  0.66903293     0.06900
H2294       H  0.13023913  0.86782533  0.61795469     0.08100
H2295       H  0.13234678  0.85557356  0.67110160     0.07100
H2296       H  0.04546664  0.83723777  0.59737757     0.02000
H2297       H  0.04721781  0.82714041  0.65298903     0.02500
H2298       H  0.05575226  0.81545817  0.60425623     0.06000
H2299       H  0.05692212  0.85884139  0.77828184     0.05000
H2300       H  0.07662629  0.86307413  0.74461340    -0.00800
H2301       H  0.06393509  0.84239058  0.73724605     0.00700
H2302       H  0.02555622  0.90093867  0.58588652     0.04300
H2303       H  0.00505132  0.89509926  0.61524427     0.06300
H2304       H  0.01534745  0.87896857  0.57912694     0.07100
C2305       C  0.10242673  0.69185610  0.65148724    -0.22500
C2306       C  0.09253097  0.70762814  0.64311672     0.09500
C2307       C  0.07371251  0.70763562  0.65005411     0.09900
C2308       C  0.06524401  0.69187648  0.66598286    -0.17400
C2309       C  0.07515632  0.67609947  0.67490904    -0.27800
C2310       C  0.09406265  0.67614895  0.66795239     0.18200
C2311       C  0.10231050  0.72407705  0.62816962     0.12200
C2312       C  0.06266457  0.72435675  0.64146106    -0.12200
H2313       H  0.05083270  0.69191273  0.67204055     0.12500
C2314       C  0.10607402  0.66040303  0.67985804    -0.23000
H2315       H  0.11691069  0.69199000  0.64643396     0.08100
C2316       C  0.11160737  0.73514605  0.65919953     0.04500
C2317       C  0.12127242  0.75019292  0.64323270    -0.20200
C2318       C  0.12170252  0.75452669  0.59699914    -0.12500
C2319       C  0.11234206  0.74338588  0.56594929     0.13200
C2320       C  0.10275759  0.72829915  0.58202007    -0.23000
C2321       C  0.11124757  0.73110006  0.70912535    -0.06000
H2322       H  0.12846444  0.75868966  0.66700371     0.14700
C2323       C  0.11302144  0.74682368  0.51570837    -0.16200
H2324       H  0.09572525  0.71960276  0.55847019     0.09000
H2325       H  0.11646996  0.66487868  0.70442063     0.06900
H2326       H  0.11291595  0.65545950  0.64889270     0.08100
H2327       H  0.09882764  0.64894696  0.69556406     0.07100
H2328       H  0.06385909  0.72839458  0.60542702     0.02000
H2329       H  0.06758512  0.73554864  0.66312282     0.02500
H2330       H  0.04816247  0.72210856  0.64906387     0.06000
H2331       H  0.11903472  0.74122412  0.72875354     0.05000
H2332       H  0.11721958  0.71759971  0.71565929    -0.00800
H2333       H  0.09710790  0.73123360  0.72147790     0.00700
H2334       H  0.10591214  0.73610970  0.49645368     0.04300
H2335       H  0.12726305  0.74715803  0.50407514     0.06300
H2336       H  0.10639738  0.75986580  0.50758986     0.07100
C2337       C  0.42143742  0.88907086  0.63937989    -0.22500
C2338       C  0.40382279  0.88760196  0.65629771     0.09500
C2339       C  0.39970028  0.89469730  0.69927931     0.09900
C2340       C  0.41365518  0.90179558  0.72589202    -0.17400
C2341       C  0.43159279  0.90145224  0.71073659    -0.27800
C2342       C  0.43541726  0.89593869  0.66608190     0.18200
C2343       C  0.39109118  0.87591242  0.63134245     0.12200
C2344       C  0.38074475  0.89426888  0.71751811    -0.12200
H2345       H  0.41076351  0.90622328  0.76003315     0.12500
C2346       C  0.45421916  0.89697882  0.64671687    -0.23000
H2347       H  0.42449126  0.88368731  0.60619201     0.08100
C2348       C  0.38485516  0.88044732  0.58771636     0.04500
C2349       C  0.37711940  0.86694685  0.56068120    -0.20200
C2350       C  0.37581666  0.84909014  0.57634814    -0.12500
C2351       C  0.37999112  0.84514859  0.62186269     0.13200
C2352       C  0.38781853  0.85856567  0.64867853    -0.23000
C2353       C  0.38697798  0.89929969  0.56922806    -0.06000
H2354       H  0.37355439  0.86999563  0.52595124     0.14700
C2355       C  0.37669597  0.82684959  0.64269440    -0.16200
H2356       H  0.39238112  0.85514366  0.68245028     0.09000
H2357       H  0.45949653  0.91094557  0.65015105     0.06900
H2358       H  0.46333385  0.88745309  0.66444627     0.08100
H2359       H  0.45442103  0.89341254  0.61027538     0.07100
H2360       H  0.37603404  0.88011776  0.72116783     0.02000
H2361       H  0.37163734  0.90159880  0.69402899     0.02500
H2362       H  0.37984376  0.90079238  0.75120980     0.06000
H2363       H  0.38096250  0.90061330  0.53500689     0.05000
H2364       H  0.40145919  0.90291138  0.56668611    -0.00800
H2365       H  0.38010673  0.90902029  0.59197030     0.00700
H2366       H  0.38972252  0.82074122  0.65302775     0.04300
H2367       H  0.36967244  0.81750186  0.61938291     0.06300
H2368       H  0.36802285  0.82837531  0.67305696     0.07100
C2369       C  0.48049411  0.85498735  0.39000249    -0.22500
C2370       C  0.46414867  0.85652168  0.36653986     0.09500
C2371       C  0.46316448  0.86728647  0.32729866     0.09900
C2372       C  0.47858354  0.87653337  0.31259959    -0.17400
C2373       C  0.49490163  0.87529481  0.33640516    -0.27800
C2374       C  0.49590668  0.86442127  0.37573482     0.18200
C2375       C  0.44782112  0.84805680  0.38577770     0.12200
C2376       C  0.44575574  0.86924054  0.30150925    -0.12200
H2377       H  0.47785925  0.88499798  0.28268786     0.12500
C2378       C  0.51252525  0.86327976  0.40497705    -0.23000
H2379       H  0.48103384  0.84690580  0.42060312     0.08100
C2380       C  0.44280494  0.83020408  0.37520890     0.04500
C2381       C  0.42710977  0.82293783  0.39451813    -0.20200
C2382       C  0.41637755  0.83316915  0.42402495    -0.12500
C2383       C  0.42160802  0.85103864  0.43502961     0.13200
C2384       C  0.43718152  0.85828680  0.41524679    -0.23000
C2385       C  0.45404183  0.81886985  0.34378226    -0.06000
H2386       H  0.42320053  0.80917922  0.38669127     0.14700
C2387       C  0.41178815  0.86259866  0.46899029    -0.16200
H2388       H  0.44127174  0.87195920  0.42349905     0.09000
H2389       H  0.51728795  0.84907461  0.40637013     0.06900
H2390       H  0.50915262  0.86772836  0.43978428     0.08100
H2391       H  0.52376582  0.87188999  0.39294997     0.07100
H2392       H  0.43524858  0.87516675  0.32370984     0.02000
H2393       H  0.44114933  0.85579835  0.28962239     0.02500
H2394       H  0.44733723  0.87816832  0.27154398     0.06000
H2395       H  0.44816666  0.80519654  0.33906780     0.05000
H2396       H  0.46783094  0.81728641  0.35782860    -0.00800
H2397       H  0.45492295  0.82550347  0.31017173     0.00700
H2398       H  0.42128247  0.86678759  0.49603471     0.04300
H2399       H  0.40046165  0.85559201  0.48574841     0.06300
H2400       H  0.40648237  0.87488353  0.45200674     0.07100
C2401       C  0.28134936  0.80537573  0.54632920    -0.22500
C2402       C  0.27101392  0.81561552  0.51613157     0.09500
C2403       C  0.27943386  0.82432860  0.47936175     0.09900
C2404       C  0.29799102  0.82183938  0.47232314    -0.17400
C2405       C  0.30829607  0.81075977  0.50113452    -0.27800
C2406       C  0.29988511  0.80279449  0.53942034     0.18200
C2407       C  0.25123211  0.81596276  0.52265616     0.12200
C2408       C  0.26883471  0.83615746  0.44752900    -0.12200
H2409       H  0.30434927  0.82816200  0.44334094     0.12500
C2410       C  0.31019747  0.79164419  0.57341967    -0.23000
H2411       H  0.27472366  0.79894628  0.57476991     0.08100
C2412       C  0.24008942  0.80311713  0.50143742     0.04500
C2413       C  0.22166974  0.80265491  0.51187356    -0.20200
C2414       C  0.21406343  0.81435987  0.54418370    -0.12500
C2415       C  0.22537069  0.82736253  0.56525158     0.13200
C2416       C  0.24378619  0.82803969  0.55384566    -0.23000
C2417       C  0.24776386  0.78939103  0.46911653    -0.06000
H2418       H  0.21325920  0.79266842  0.49539417     0.14700
C2419       C  0.21850307  0.84006520  0.60105906    -0.16200
H2420       H  0.25259716  0.83766184  0.57040560     0.09000
H2421       H  0.31489965  0.77894155  0.55754604     0.06900
H2422       H  0.30168859  0.78780599  0.60282302     0.08100
H2423       H  0.32189499  0.79945069  0.58635966     0.07100
H2424       H  0.26259233  0.84741532  0.46667602     0.02000
H2425       H  0.25805030  0.82820617  0.43088361     0.02500
H2426       H  0.27753739  0.84205985  0.42072302     0.06000
H2427       H  0.23720129  0.78013233  0.45603241     0.05000
H2428       H  0.25810555  0.78109435  0.48661377    -0.00800
H2429       H  0.25407584  0.79629461  0.43980653     0.00700
H2430       H  0.21285395  0.83221628  0.62981065     0.04300
H2431       H  0.20799784  0.84905275  0.58661372     0.06300
H2432       H  0.22940518  0.84881460  0.61457335     0.07100
C2433       C  0.07330821  0.83828300  0.12047662    -0.22500
C2434       C  0.09034426  0.83397052  0.13812232     0.09500
C2435       C  0.09794356  0.84488660  0.17223504     0.09900
C2436       C  0.08843041  0.86003346  0.18743619    -0.17400
C2437       C  0.07137645  0.86431733  0.16999307    -0.27800
C2438       C  0.06364154  0.85331946  0.13617325     0.18200
C2439       C  0.10020100  0.81813435  0.12019800     0.12200
C2440       C  0.11586225  0.84033361  0.19348716    -0.12200
H2441       H  0.09415674  0.86839377  0.21382855     0.12500
C2442       C  0.04558105  0.85731530  0.11500002    -0.23000
H2443       H  0.06759722  0.82995203  0.09402407     0.08100
C2444       C  0.09489922  0.80031206  0.13060137     0.04500
C2445       C  0.10544714  0.78587464  0.11522232    -0.20200
C2446       C  0.12134885  0.78875738  0.09038835    -0.12500
C2447       C  0.12641230  0.80669726  0.07917149     0.13200
C2448       C  0.11564084  0.82111024  0.09390011    -0.23000
C2449       C  0.07845442  0.79650477  0.15902412    -0.06000
H2450       H  0.10146919  0.77224935  0.12369676     0.14700
C2451       C  0.14285431  0.81086558  0.05101663    -0.16200
H2452       H  0.11944099  0.83486613  0.08560032     0.09000
H2453       H  0.03620230  0.84591443  0.12166110     0.06900
H2454       H  0.04724897  0.85891205  0.07790512     0.08100
H2455       H  0.03930775  0.86987594  0.12783633     0.07100
H2456       H  0.12673635  0.84101141  0.16778983     0.02000
H2457       H  0.11534822  0.82650690  0.20808748     0.02500
H2458       H  0.11938312  0.84987416  0.22103330     0.06000
H2459       H  0.07656912  0.78179554  0.16494300     0.05000
H2460       H  0.06620859  0.80165677  0.14177529    -0.00800
H2461       H  0.07984162  0.80319958  0.19237870     0.00700
H2462       H  0.14401585  0.82552187  0.04341579     0.04300
H2463       H  0.14204579  0.80355596  0.01835903     0.06300
H2464       H  0.15525177  0.80684676  0.06944973     0.07100
C2465       C  0.13208470  0.65755171  0.95960963    -0.22500
C2466       C  0.12548640  0.66272246  0.91718888     0.09500
C2467       C  0.12670561  0.68094066  0.90334145     0.09900
C2468       C  0.13468783  0.69352504  0.93212064    -0.17400
C2469       C  0.14014412  0.68880645  0.97609812    -0.27800
C2470       C  0.13910267  0.67039746  0.98978738     0.18200
C2471       C  0.11389203  0.65012209  0.89187239     0.12200
C2472       C  0.11803716  0.68757362  0.86014550    -0.12200
H2473       H  0.13539234  0.70749464  0.92118794     0.12500
C2474       C  0.14416518  0.66419722  0.03669414    -0.23000
H2475       H  0.13054326  0.64361342  0.97025811     0.08100
C2476       C  0.11879008  0.64350978  0.84904026     0.04500
C2477       C  0.10521284  0.63737021  0.81983506    -0.20200
C2478       C  0.08695628  0.63760159  0.83305223    -0.12500
C2479       C  0.08260847  0.64174692  0.87866151     0.13200
C2480       C  0.09621940  0.64795902  0.90738532    -0.23000
C2481       C  0.13821892  0.64333369  0.83407478    -0.06000
H2482       H  0.10880137  0.63350675  0.78569406     0.14700
C2483       C  0.06367831  0.64053580  0.89729675    -0.16200
H2484       H  0.09275567  0.65268637  0.94095295     0.09000
H2485       H  0.14231308  0.64940076  0.04102598     0.06900
H2486       H  0.13548974  0.67098225  0.06211811     0.08100
H2487       H  0.15856737  0.66729154  0.04334605     0.07100
H2488       H  0.10338112  0.68449016  0.86066978     0.02000
H2489       H  0.12424125  0.68103327  0.83034843     0.02500
H2490       H  0.11955661  0.70240809  0.85581422     0.06000
H2491       H  0.13969110  0.63777075  0.79944614     0.05000
H2492       H  0.14617576  0.63476232  0.85756340    -0.00800
H2493       H  0.14398566  0.65714793  0.83421865     0.00700
H2494       H  0.06344527  0.64220498  0.93459325     0.04300
H2495       H  0.05777143  0.62711019  0.88951080     0.06300
H2496       H  0.05515437  0.65143192  0.88293967     0.07100
C2497       C  0.07484917  0.70453231  0.15063856    -0.22500
C2498       C  0.07728814  0.68698052  0.16719266     0.09500
C2499       C  0.09482529  0.67969095  0.16989424     0.09900
C2500       C  0.10950506  0.68981736  0.15362001    -0.17400
C2501       C  0.10696971  0.70700333  0.13440226    -0.27800
C2502       C  0.08947030  0.71469589  0.13443557     0.18200
C2503       C  0.06112090  0.67626233  0.17946937     0.12200
C2504       C  0.09797084  0.66115585  0.18939756    -0.12200
H2505       H  0.12288655  0.68394535  0.15400380     0.12500
C2506       C  0.08616765  0.73379161  0.11892622    -0.23000
H2507       H  0.06136096  0.71015079  0.14962316     0.08100
C2508       C  0.05207264  0.67882503  0.22078657     0.04500
C2509       C  0.03632999  0.66893000  0.22978112    -0.20200
C2510       C  0.02940720  0.65635454  0.19857602    -0.12500
C2511       C  0.03870483  0.65372198  0.15713611     0.13200
C2512       C  0.05436755  0.66381646  0.14815559    -0.23000
C2513       C  0.05914604  0.69187458  0.25551945    -0.06000
H2514       H  0.02950940  0.67092982  0.26177845     0.14700
C2515       C  0.03219050  0.64063324  0.12176314    -0.16200
H2516       H  0.06142230  0.66206216  0.11633958     0.09000
H2517       H  0.09494967  0.74296738  0.13862480     0.06900
H2518       H  0.07196048  0.73798678  0.12448115     0.08100
H2519       H  0.08902651  0.73525050  0.08232784     0.07100
H2520       H  0.09067724  0.65090125  0.16909373     0.02000
H2521       H  0.09299299  0.66069038  0.22478156     0.02500
H2522       H  0.11251173  0.65757050  0.18952410     0.06000
H2523       H  0.05061881  0.69203459  0.28638884     0.05000
H2524       H  0.05939448  0.70575255  0.24124574    -0.00800
H2525       H  0.07302803  0.68793578  0.26553843     0.00700
H2526       H  0.01810945  0.64390450  0.11197844     0.04300
H2527       H  0.03292991  0.62663242  0.13509126     0.06300
H2528       H  0.04059756  0.64115931  0.09069916     0.07100
C2529       C  0.18309239  0.78348363  0.77239525    -0.22500
C2530       C  0.16831964  0.78820475  0.79932970     0.09500
C2531       C  0.15496019  0.79985569  0.78207242     0.09900
C2532       C  0.15601867  0.80558291  0.73696257    -0.17400
C2533       C  0.17014822  0.79989061  0.70873396    -0.27800
C2534       C  0.18427972  0.78929867  0.72726531     0.18200
C2535       C  0.16668837  0.78034364  0.84509743     0.12200
C2536       C  0.13936832  0.80586994  0.81101715    -0.12200
H2537       H  0.14530204  0.81387095  0.72316405     0.12500
C2538       C  0.20079479  0.78435843  0.70022701    -0.23000
H2539       H  0.19350250  0.77490291  0.78650208     0.08100
C2540       C  0.15767933  0.76379494  0.85226531     0.04500
C2541       C  0.15518717  0.75751841  0.89655180    -0.20200
C2542       C  0.16163056  0.76733575  0.93372337    -0.12500
C2543       C  0.17083276  0.78388425  0.92638197     0.13200
C2544       C  0.17336320  0.79006364  0.88198104    -0.23000
C2545       C  0.15060504  0.75285542  0.81320140    -0.06000
H2546       H  0.14820851  0.74483168  0.90224481     0.14700
C2547       C  0.17739014  0.79589351  0.96406226    -0.16200
H2548       H  0.18012029  0.80285601  0.87610108     0.09000
H2549       H  0.19721411  0.77493780  0.67257961     0.06900
H2550       H  0.21108909  0.77752357  0.72148932     0.08100
H2551       H  0.20701155  0.79677215  0.68589422     0.07100
H2552       H  0.14451738  0.81328853  0.84092135     0.02000
H2553       H  0.13153680  0.79393860  0.82259543     0.02500
H2554       H  0.13010140  0.81497630  0.79226488     0.06000
H2555       H  0.14387729  0.74025439  0.82480897     0.05000
H2556       H  0.16192303  0.74904511  0.79058474    -0.00800
H2557       H  0.14063763  0.76090942  0.79375170     0.00700
H2558       H  0.19228416  0.79720398  0.96209185     0.04300
H2559       H  0.17379153  0.79095741  0.99815954     0.06300
H2560       H  0.17128698  0.80951357  0.96032551     0.07100
C2561       C  0.14958551  0.76887355  0.35572218    -0.22500
C2562       C  0.16643653  0.76112832  0.34741854     0.09500
C2563       C  0.17941249  0.76022369  0.38204207     0.09900
C2564       C  0.17510745  0.76704796  0.42488838    -0.17400
C2565       C  0.15828534  0.77514829  0.43321533    -0.27800
C2566       C  0.14530774  0.77602220  0.39803788     0.18200
C2567       C  0.17011972  0.75475413  0.30127144     0.12200
C2568       C  0.19773927  0.75217900  0.37355115    -0.12200
H2569       H  0.18509435  0.76649902  0.45160957     0.12500
C2570       C  0.12683315  0.78418401  0.40452684    -0.23000
H2571       H  0.13980632  0.76953759  0.32850127     0.08100
C2572       C  0.16270924  0.73845459  0.28528593     0.04500
C2573       C  0.16373318  0.73453623  0.23908487    -0.20200
C2574       C  0.17178438  0.74672268  0.20871026    -0.12500
C2575       C  0.18027934  0.76248741  0.22539718     0.13200
C2576       C  0.17928109  0.76631555  0.27165410    -0.23000
C2577       C  0.15338045  0.72546162  0.31686279    -0.06000
H2578       H  0.15739837  0.72237413  0.22635533     0.14700
C2579       C  0.19049765  0.77525220  0.19491457    -0.16200
H2580       H  0.18502245  0.77874856  0.28457821     0.09000
H2581       H  0.11816763  0.78233937  0.37427901     0.06900
H2582       H  0.12797694  0.79894672  0.41033544     0.08100
H2583       H  0.11994775  0.77762908  0.43359342     0.07100
H2584       H  0.20479788  0.75999606  0.34679375     0.02000
H2585       H  0.19626503  0.73793934  0.36244524     0.02500
H2586       H  0.20625262  0.75238770  0.40442043     0.06000
H2587       H  0.14857508  0.71321767  0.29888892     0.05000
H2588       H  0.14153309  0.73207102  0.33268647    -0.00800
H2589       H  0.16290121  0.72113047  0.34373535     0.00700
H2590       H  0.18115408  0.78210297  0.17118134     0.04300
H2591       H  0.20085226  0.76765959  0.17561306     0.06300
H2592       H  0.19750058  0.78594692  0.21448491     0.07100
C2593       C  0.42465933  0.79631151  0.90038483    -0.22500
C2594       C  0.42056277  0.81374148  0.91568540     0.09500
C2595       C  0.40665936  0.81616772  0.94764384     0.09900
C2596       C  0.39697218  0.80109046  0.96318412    -0.17400
C2597       C  0.40100805  0.78358705  0.94797289    -0.27800
C2598       C  0.41509198  0.78115501  0.91621057     0.18200
C2599       C  0.43029909  0.82939032  0.89593429     0.12200
C2600       C  0.40213864  0.83465986  0.96551952    -0.12200
H2601       H  0.38623066  0.80296559  0.98759661     0.12500
C2602       C  0.41959858  0.76278685  0.89741642    -0.23000
H2603       H  0.43523315  0.79462622  0.87544771     0.08100
C2604       C  0.44775422  0.83435941  0.91031587     0.04500
C2605       C  0.45617249  0.84953056  0.89080617    -0.20200
C2606       C  0.44747251  0.85978199  0.85732947    -0.12500
C2607       C  0.43023336  0.85432177  0.84179810     0.13200
C2608       C  0.42180932  0.83934522  0.86175819    -0.23000
C2609       C  0.45732175  0.82381057  0.94664632    -0.06000
H2610       H  0.46945388  0.85359600  0.90222622     0.14700
C2611       C  0.42058087  0.86342163  0.80310183    -0.16200
H2612       H  0.40855355  0.83523881  0.85017311     0.09000
H2613       H  0.42464523  0.75383726  0.92475504     0.06900
H2614       H  0.43025207  0.76357836  0.87108604     0.08100
H2615       H  0.40740715  0.75669233  0.88185122     0.07100
H2616       H  0.39773134  0.84357115  0.93740765     0.02000
H2617       H  0.41421454  0.84062259  0.98191251     0.02500
H2618       H  0.39110855  0.83412990  0.99090236     0.06000
H2619       H  0.47078501  0.82962165  0.95432722     0.05000
H2620       H  0.45926188  0.80963450  0.93551859    -0.00800
H2621       H  0.44917138  0.82392820  0.97813256     0.00700
H2622       H  0.41758638  0.85331552  0.77644665     0.04300
H2623       H  0.42859632  0.87425090  0.78707620     0.06300
H2624       H  0.40769375  0.86928896  0.81525281     0.07100
C2625       C  0.34503016  0.76043266  0.76902069    -0.22500
C2626       C  0.35381773  0.74787853  0.74146022     0.09500
C2627       C  0.36071516  0.73180506  0.76019785     0.09900
C2628       C  0.35921344  0.72892288  0.80682796    -0.17400
C2629       C  0.35139901  0.74200056  0.83505670    -0.27800
C2630       C  0.34377282  0.75776903  0.81576025     0.18200
C2631       C  0.35759263  0.75308623  0.69438114     0.12200
C2632       C  0.36999611  0.71795101  0.73114101    -0.12200
H2633       H  0.36499869  0.71681903  0.82155749     0.12500
C2634       C  0.33429964  0.77183870  0.84388571    -0.23000
H2635       H  0.33982571  0.77275331  0.75402607     0.08100
C2636       C  0.34420140  0.75268094  0.66068213     0.04500
C2637       C  0.34812390  0.75980973  0.61785630    -0.20200
C2638       C  0.36495805  0.76772929  0.60867278    -0.12500
C2639       C  0.37862031  0.76735850  0.64217509     0.13200
C2640       C  0.37469524  0.76001665  0.68461101    -0.23000
C2641       C  0.32580016  0.74494837  0.67019978    -0.06000
H2642       H  0.33778801  0.75978023  0.59198814     0.14700
C2643       C  0.39743476  0.77436461  0.63358210    -0.16200
H2644       H  0.38487421  0.76014392  0.71094490     0.09000
H2645       H  0.32794521  0.78241245  0.82248336     0.06900
H2646       H  0.34405218  0.77873222  0.86643387     0.08100
H2647       H  0.32351263  0.76537413  0.86435112     0.07100
H2648       H  0.38214845  0.72395007  0.71513368     0.02000
H2649       H  0.36062543  0.71325903  0.70436893     0.02500
H2650       H  0.37434662  0.70601376  0.75116834     0.06000
H2651       H  0.31698676  0.74547910  0.63987980     0.05000
H2652       H  0.31915353  0.75273610  0.69753491    -0.00800
H2653       H  0.32710753  0.73062078  0.68089672     0.00700
H2654       H  0.39723781  0.78922107  0.62886756     0.04300
H2655       H  0.40316804  0.76779025  0.60309949     0.06300
H2656       H  0.40659796  0.77148776  0.66239910     0.07100
C2657       C  0.34122448  0.77780889  0.27207702    -0.22500
C2658       C  0.35176638  0.78817339  0.24270690     0.09500
C2659       C  0.36095255  0.80346596  0.25895090     0.09900
C2660       C  0.36026556  0.80745051  0.30520957    -0.17400
C2661       C  0.35073656  0.79634903  0.33576350    -0.27800
C2662       C  0.34057528  0.78157845  0.31844659     0.18200
C2663       C  0.35476279  0.78131300  0.19655281     0.12200
C2664       C  0.37189799  0.81521862  0.22762191    -0.12200
H2665       H  0.36786926  0.81890593  0.31766398     0.12500
C2666       C  0.32931301  0.76933320  0.34798310    -0.23000
H2667       H  0.33417724  0.76612886  0.25883073     0.08100
C2668       C  0.36868982  0.76885100  0.18805380     0.04500
C2669       C  0.37083325  0.76197423  0.14444034    -0.20200
C2670       C  0.35920066  0.76698630  0.10904932    -0.12500
C2671       C  0.34521465  0.77959771  0.11772103     0.13200
C2672       C  0.34322475  0.78663240  0.16154315    -0.23000
C2673       C  0.38118261  0.76265456  0.22521859    -0.06000
H2674       H  0.38156566  0.75237884  0.13818958     0.14700
C2675       C  0.33260284  0.78603276  0.08114774    -0.16200
H2676       H  0.33255482  0.79621418  0.16871833     0.09000
H2677       H  0.32166215  0.75927597  0.32782458     0.06900
H2678       H  0.31935072  0.77743926  0.36725922     0.08100
H2679       H  0.33811209  0.76162463  0.37143801     0.07100
H2680       H  0.36302984  0.82084634  0.20084939     0.02000
H2681       H  0.38275579  0.80713577  0.21162686     0.02500
H2682       H  0.37827153  0.82667224  0.24580623     0.06000
H2683       H  0.39136418  0.75286830  0.21270889     0.05000
H2684       H  0.37329860  0.75594331  0.25239449    -0.00800
H2685       H  0.38846416  0.77441297  0.23961043     0.00700
H2686       H  0.32429172  0.77460475  0.06873348     0.04300
H2687       H  0.34047634  0.79193193  0.05278192     0.06300
H2688       H  0.32321345  0.79658029  0.09367827     0.07100
C2689       C  0.27680029  0.70984191  0.97904897    -0.22500
C2690       C  0.26931494  0.72069004  0.01304123     0.09500
C2691       C  0.28055738  0.73249713  0.03761464     0.09900
C2692       C  0.29898574  0.73340132  0.02724864    -0.17400
C2693       C  0.30652394  0.72280852  0.99282417    -0.27800
C2694       C  0.29527906  0.71084012  0.96830020     0.18200
C2695       C  0.24953692  0.72050939  0.02096728     0.12200
C2696       C  0.27300007  0.74447011  0.07412036    -0.12200
H2697       H  0.30757142  0.74266799  0.04572993     0.12500
C2698       C  0.30197763  0.69970016  0.92917456    -0.23000
H2699       H  0.26806545  0.70096469  0.95985231     0.08100
C2700       C  0.23801522  0.73223162  0.99684117     0.04500
C2701       C  0.21985856  0.73366223  0.00971428    -0.20200
C2702       C  0.21292385  0.72366518  0.04618398    -0.12500
C2703       C  0.22436787  0.71156587  0.06969291     0.13200
C2704       C  0.24251902  0.71003467  0.05643085    -0.23000
C2705       C  0.24503810  0.74365201  0.95845245    -0.06000
H2706       H  0.21108096  0.74297034  0.99186423     0.14700
C2707       C  0.21831568  0.70094218  0.11049838    -0.16200
H2708       H  0.25148235  0.70123245  0.07526458     0.09000
H2709       H  0.29422149  0.70325246  0.89830943     0.06900
H2710       H  0.29993422  0.68514186  0.93670941     0.08100
H2711       H  0.31642270  0.70187922  0.92150504     0.07100
H2712       H  0.26680651  0.73604913  0.10107049     0.02000
H2713       H  0.26259321  0.75357163  0.05964226     0.02500
H2714       H  0.28361776  0.75298420  0.08980918     0.06000
H2715       H  0.23425766  0.75214529  0.94333556     0.05000
H2716       H  0.25056362  0.73480635  0.93156301    -0.00800
H2717       H  0.25586428  0.75274538  0.97082205     0.00700
H2718       H  0.21978987  0.68627749  0.10367194     0.04300
H2719       H  0.20413963  0.70355638  0.12014597     0.06300
H2720       H  0.22688437  0.70454432  0.13990493     0.07100
C2721       C  0.55829964  0.65907754  0.32523407    -0.22500
C2722       C  0.55687784  0.67228835  0.35892533     0.09500
C2723       C  0.53997799  0.67571342  0.37911920     0.09900
C2724       C  0.52493826  0.66550500  0.36588416    -0.17400
C2725       C  0.52647076  0.65181336  0.33338738    -0.27800
C2726       C  0.54328942  0.64875624  0.31220707     0.18200
C2727       C  0.57346416  0.68157975  0.37445158     0.12200
C2728       C  0.53790592  0.68980247  0.41539334    -0.12200
H2729       H  0.51198991  0.66792102  0.38177087     0.12500
C2730       C  0.54537745  0.63498665  0.27516142    -0.23000
H2731       H  0.57129818  0.65667045  0.30960740     0.08100
C2732       C  0.58599768  0.67262542  0.40246721     0.04500
C2733       C  0.60126042  0.68195467  0.41759674    -0.20200
C2734       C  0.60422646  0.70012268  0.40597468    -0.12500
C2735       C  0.59194943  0.70896375  0.37674029     0.13200
C2736       C  0.57662165  0.69957264  0.36159450    -0.23000
C2737       C  0.58294427  0.65343312  0.41785355    -0.06000
H2738       H  0.61057826  0.67521123  0.44027727     0.14700
C2739       C  0.59479809  0.72798196  0.35982004    -0.16200
H2740       H  0.56707999  0.70630465  0.33950500     0.09000
H2741       H  0.54277226  0.62125927  0.28874744     0.06900
H2742       H  0.55921074  0.63507323  0.26075082     0.08100
H2743       H  0.53573980  0.63793635  0.24738154     0.07100
H2744       H  0.54153992  0.70329608  0.40171706     0.02000
H2745       H  0.54686711  0.68652902  0.44432463     0.02500
H2746       H  0.52382810  0.69050434  0.42812037     0.06000
H2747       H  0.59382625  0.64869077  0.44077397     0.05000
H2748       H  0.58259307  0.64427638  0.38824209    -0.00800
H2749       H  0.56994884  0.65247885  0.43636887     0.00700
H2750       H  0.59443509  0.72807127  0.32229750     0.04300
H2751       H  0.60796786  0.73376424  0.36991584     0.06300
H2752       H  0.58386707  0.73682555  0.37269581     0.07100
C2753       C  0.40958850  0.73081863  0.38181788    -0.22500
C2754       C  0.41946277  0.72076077  0.41343658     0.09500
C2755       C  0.42056438  0.72669350  0.45854290     0.09900
C2756       C  0.41105980  0.74218257  0.47158869    -0.17400
C2757       C  0.40057208  0.75197394  0.44047673    -0.27800
C2758       C  0.40039189  0.74659575  0.39447340     0.18200
C2759       C  0.42844214  0.70393030  0.39876594     0.12200
C2760       C  0.43155375  0.71650581  0.49299861    -0.12200
H2761       H  0.41140799  0.74636423  0.50666926     0.12500
C2762       C  0.39134065  0.75736946  0.35750472    -0.23000
H2763       H  0.40919476  0.72639590  0.34691667     0.08100
C2764       C  0.41938643  0.68718558  0.40015380     0.04500
C2765       C  0.42847222  0.67152485  0.38634267    -0.20200
C2766       C  0.44630086  0.67230046  0.37044760    -0.12500
C2767       C  0.45546728  0.68911317  0.36990766     0.13200
C2768       C  0.44634573  0.70472904  0.38388809    -0.23000
C2769       C  0.40004198  0.68594254  0.41541384    -0.06000
H2770       H  0.42139334  0.65870292  0.38632869     0.14700
C2771       C  0.47492896  0.69111147  0.35609436    -0.16200
H2772       H  0.45328492  0.71762851  0.38349024     0.09000
H2773       H  0.37995390  0.74949071  0.34322968     0.06900
H2774       H  0.40122081  0.76015328  0.33012406     0.08100
H2775       H  0.38627835  0.77066378  0.36885788     0.07100
H2776       H  0.44588471  0.71610429  0.48217756     0.02000
H2777       H  0.42640554  0.70248189  0.49631439     0.02500
H2778       H  0.43093940  0.72297135  0.52679936     0.06000
H2779       H  0.39494580  0.67183874  0.41424722     0.05000
H2780       H  0.39141420  0.69435128  0.39306531    -0.00800
H2781       H  0.39881201  0.69085814  0.45068686     0.00700
H2782       H  0.47584639  0.69965394  0.32528103     0.04300
H2783       H  0.48158651  0.67805508  0.34940681     0.06300
H2784       H  0.48259700  0.69770470  0.38375148     0.07100
C2785       C  0.38546060  0.67689756  0.15260934    -0.22500
C2786       C  0.38867468  0.65970458  0.13478123     0.09500
C2787       C  0.38294106  0.65560806  0.09069462     0.09900
C2788       C  0.37656125  0.66960645  0.06299130    -0.17400
C2789       C  0.37565490  0.68752943  0.07882521    -0.27800
C2790       C  0.37885745  0.69090503  0.12533601     0.18200
C2791       C  0.40150969  0.64802808  0.15924497     0.12200
C2792       C  0.38407161  0.63661390  0.07274302    -0.12200
H2793       H  0.37340695  0.66666922  0.02801466     0.12500
C2794       C  0.37590283  0.70918494  0.14652382    -0.23000
H2795       H  0.38951061  0.67973397  0.18708185     0.08100
C2796       C  0.42001357  0.64891185  0.14850846     0.04500
C2797       C  0.43250946  0.64120739  0.17800476    -0.20200
C2798       C  0.42715103  0.63330758  0.21921693    -0.12500
C2799       C  0.40844508  0.63100364  0.22790273     0.13200
C2800       C  0.39583933  0.63851414  0.19768217    -0.23000
C2801       C  0.42678950  0.65922112  0.10773596    -0.06000
H2802       H  0.44670394  0.64262275  0.17004221     0.14700
C2803       C  0.40155540  0.62107180  0.26894759    -0.16200
H2804       H  0.38155089  0.63783310  0.20526839     0.09000
H2805       H  0.38614465  0.71894193  0.13423236     0.06900
H2806       H  0.37715962  0.70860599  0.18391093     0.08100
H2807       H  0.36213808  0.71413668  0.13845260     0.07100
H2808       H  0.37575741  0.62754244  0.09424501     0.02000
H2809       H  0.39819634  0.63172278  0.07312626     0.02500
H2810       H  0.37898486  0.63573264  0.03751868     0.06000
H2811       H  0.44173608  0.65898568  0.10532882     0.05000
H2812       H  0.42249968  0.67356210  0.10980228    -0.00800
H2813       H  0.42138451  0.65322028  0.07625986     0.00700
H2814       H  0.40491909  0.62865534  0.30011350     0.04300
H2815       H  0.40758912  0.60735036  0.27034438     0.06300
H2816       H  0.38666289  0.61948147  0.26806911     0.07100
C2817       C  0.41510102  0.34834372  0.10991777    -0.22500
C2818       C  0.41518442  0.33243893  0.13580688     0.09500
C2819       C  0.42517711  0.33176431  0.17627816     0.09900
C2820       C  0.43463357  0.34713091  0.19038900    -0.17400
C2821       C  0.43435882  0.36321782  0.16507912    -0.27800
C2822       C  0.42476000  0.36371867  0.12371317     0.18200
C2823       C  0.40518800  0.31639888  0.11945216     0.12200
C2824       C  0.42554116  0.31495024  0.20510940    -0.12200
H2825       H  0.44193951  0.34671775  0.22210665     0.12500
C2826       C  0.42498779  0.37979490  0.09235384    -0.23000
H2827       H  0.40769183  0.34864842  0.07834654     0.08100
C2828       C  0.38636561  0.31481448  0.12469249     0.04500
C2829       C  0.37764821  0.29908652  0.10974073    -0.20200
C2830       C  0.38731837  0.28480362  0.08981073    -0.12500
C2831       C  0.40634113  0.28635216  0.08554351     0.13200
C2832       C  0.41493414  0.30221053  0.10005967    -0.23000
C2833       C  0.37554282  0.32960000  0.14667915    -0.06000
H2834       H  0.36314593  0.29803553  0.11338196     0.14700
C2835       C  0.41787624  0.27125951  0.06728306    -0.16200
H2836       H  0.42944414  0.30351932  0.09679646     0.09000
H2837       H  0.41113665  0.38530547  0.08894512     0.06900
H2838       H  0.42984014  0.37551422  0.05851404     0.08100
H2839       H  0.43404470  0.39073044  0.10380443     0.07100
H2840       H  0.43153401  0.30359882  0.18584109     0.02000
H2841       H  0.41160147  0.31130799  0.21539960     0.02500
H2842       H  0.43369287  0.31687873  0.23620791     0.06000
H2843       H  0.36100458  0.32607774  0.14880974     0.05000
H2844       H  0.37682310  0.34226954  0.12679206    -0.00800
H2845       H  0.38057764  0.33194994  0.18151332     0.00700
H2846       H  0.41479416  0.26892230  0.03108241     0.04300
H2847       H  0.41544799  0.25871929  0.08705718     0.06300
H2848       H  0.43248120  0.27446349  0.06962638     0.07100
C2849       C  0.40903244  0.39178796  0.39057442    -0.22500
C2850       C  0.39234211  0.38614637  0.37349543     0.09500
C2851       C  0.38719404  0.39119564  0.32934949     0.09900
C2852       C  0.39989917  0.39966030  0.30111296    -0.17400
C2853       C  0.41745754  0.40307097  0.31655899    -0.27800
C2854       C  0.42166535  0.40030606  0.36258034     0.18200
C2855       C  0.38266567  0.37185445  0.39870093     0.12200
C2856       C  0.36869331  0.38677307  0.31155455    -0.12200
H2857       H  0.39665155  0.40208142  0.26589134     0.12500
C2858       C  0.43963967  0.40548259  0.38244940    -0.23000
H2859       H  0.41277735  0.38825038  0.42491341     0.08100
C2860       C  0.38629092  0.35353896  0.38940562     0.04500
C2861       C  0.37952125  0.34018215  0.41828872    -0.20200
C2862       C  0.36966567  0.34458095  0.45739319    -0.12500
C2863       C  0.36506806  0.36301200  0.46500356     0.13200
C2864       C  0.37173682  0.37639995  0.43549843    -0.23000
C2865       C  0.39824725  0.34807723  0.35043575    -0.06000
H2866       H  0.38289208  0.32621989  0.41137569     0.14700
C2867       C  0.35346761  0.36891030  0.50413039    -0.16200
H2868       H  0.36903333  0.39053867  0.44212410     0.09000
H2869       H  0.44683058  0.39317981  0.39409383     0.06900
H2870       H  0.43748315  0.41455480  0.41178678     0.08100
H2871       H  0.44830710  0.41282183  0.35800513     0.07100
H2872       H  0.35835848  0.39334830  0.33310824     0.02000
H2873       H  0.36641583  0.37196310  0.31196622     0.02500
H2874       H  0.36688266  0.39165702  0.27632462     0.06000
H2875       H  0.39995990  0.33319378  0.34856433     0.05000
H2876       H  0.41181881  0.35420963  0.35442456    -0.00800
H2877       H  0.39231818  0.35266427  0.31799077     0.00700
H2878       H  0.36052296  0.36634961  0.53652533     0.04300
H2879       H  0.34042290  0.36153922  0.50345029     0.06300
H2880       H  0.35043650  0.38359486  0.50268569     0.07100
C2881       C  0.44412600  0.54041624  0.25779968    -0.22500
C2882       C  0.44981954  0.52669115  0.28717054     0.09500
C2883       C  0.45738130  0.53125839  0.32937625     0.09900
C2884       C  0.46023336  0.54948414  0.33998871    -0.17400
C2885       C  0.45560711  0.56323905  0.30945437    -0.27800
C2886       C  0.44700278  0.55869839  0.26818997     0.18200
C2887       C  0.45115074  0.50799745  0.26981955     0.12200
C2888       C  0.46288853  0.51683674  0.36264228    -0.12200
H2889       H  0.46659469  0.55301165  0.37175221     0.12500
C2890       C  0.44184902  0.57247185  0.23275609    -0.23000
H2891       H  0.43849565  0.53680681  0.22522752     0.08100
C2892       C  0.43655937  0.49577278  0.27001941     0.04500
C2893       C  0.43937479  0.47788427  0.25542003    -0.20200
C2894       C  0.45654781  0.47202260  0.24148631    -0.12500
C2895       C  0.47095865  0.48461418  0.23998576     0.13200
C2896       C  0.46798139  0.50241123  0.25383102    -0.23000
C2897       C  0.41825510  0.50153436  0.28651040    -0.06000
H2898       H  0.42831248  0.46831040  0.25631512     0.14700
C2899       C  0.48950938  0.47959129  0.22320545    -0.16200
H2900       H  0.47902005  0.51203433  0.25325864     0.09000
H2901       H  0.42702542  0.57213699  0.22755391     0.06900
H2902       H  0.44859956  0.56910237  0.20034921     0.08100
H2903       H  0.44577356  0.58646663  0.24123399     0.07100
H2904       H  0.47353838  0.50815681  0.34779355     0.02000
H2905       H  0.45101583  0.50836409  0.37133430     0.02500
H2906       H  0.46826152  0.52273822  0.39438025     0.06000
H2907       H  0.40834422  0.49029931  0.28483357     0.05000
H2908       H  0.41317899  0.51283616  0.26532247    -0.00800
H2909       H  0.41920722  0.50608578  0.32215855     0.00700
H2910       H  0.49853186  0.49154231  0.22088190     0.04300
H2911       H  0.48853126  0.47355693  0.18897512     0.06300
H2912       H  0.49595802  0.46988943  0.24680849     0.07100
C2913       C  0.58856312  0.68243749  0.94445944    -0.22500
C2914       C  0.58645652  0.69920927  0.92316175     0.09500
C2915       C  0.57472640  0.70093306  0.88600489     0.09900
C2916       C  0.56557025  0.68566353  0.87030401    -0.17400
C2917       C  0.56823986  0.66858581  0.89008671    -0.27800
C2918       C  0.57944429  0.66707437  0.92878049     0.18200
C2919       C  0.59776509  0.71450534  0.93774593     0.12200
C2920       C  0.57258658  0.71868008  0.86146105    -0.12200
H2921       H  0.55711377  0.68691325  0.84059404     0.12500
C2922       C  0.58200021  0.64975048  0.95490640    -0.23000
H2923       H  0.59755547  0.68130168  0.97321879     0.08100
C2924       C  0.59132972  0.72773141  0.96781634     0.04500
C2925       C  0.60223768  0.74268837  0.97767293    -0.20200
C2926       C  0.61962910  0.74438902  0.95919571    -0.12500
C2927       C  0.62620285  0.73075529  0.92987573     0.13200
C2928       C  0.61507354  0.71605566  0.91935521    -0.23000
C2929       C  0.57312282  0.72588275  0.98996467    -0.06000
H2930       H  0.59727518  0.75295519  0.00058930     0.14700
C2931       C  0.64462599  0.73173595  0.90836316    -0.16200
H2932       H  0.61979812  0.70573667  0.89624536     0.09000
H2933       H  0.57897884  0.65214533  0.99116804     0.06900
H2934       H  0.59619797  0.64517153  0.95172013     0.08100
H2935       H  0.57294755  0.63877026  0.94386401     0.07100
H2936       H  0.58584123  0.72316261  0.84803092     0.02000
H2937       H  0.56731894  0.72911743  0.88480364     0.02500
H2938       H  0.56307754  0.71756898  0.83261228     0.06000
H2939       H  0.57023630  0.73737602  0.01291288     0.05000
H2940       H  0.57269996  0.71322959  0.01017228    -0.00800
H2941       H  0.56235605  0.72541153  0.96400460     0.00700
H2942       H  0.64693540  0.72040524  0.88451082     0.04300
H2943       H  0.65524359  0.73091344  0.93468756     0.06300
H2944       H  0.64603094  0.74452452  0.88906960     0.07100
C2945       C  0.64197595  0.66241952  0.62990707    -0.22500
C2946       C  0.62376812  0.65727514  0.63204606     0.09500
C2947       C  0.61146965  0.66440319  0.60026268     0.09900
C2948       C  0.61770004  0.67625522  0.56684345    -0.17400
C2949       C  0.63573644  0.68207537  0.56547914    -0.27800
C2950       C  0.64812152  0.67500755  0.59754298     0.18200
C2951       C  0.61689557  0.64756832  0.67243219     0.12200
C2952       C  0.59147566  0.66065072  0.60347875    -0.12200
H2953       H  0.60815194  0.68166855  0.54257949     0.12500
C2954       C  0.66743408  0.68124442  0.60131466    -0.23000
H2955       H  0.65121505  0.65744166  0.65544715     0.08100
C2956       C  0.60997644  0.62979751  0.67010479     0.04500
C2957       C  0.59831631  0.62360594  0.70439226    -0.20200
C2958       C  0.59369768  0.63485633  0.74066788    -0.12500
C2959       C  0.60245030  0.65174137  0.74558185     0.13200
C2960       C  0.61402264  0.65783993  0.71141656    -0.23000
C2961       C  0.61462862  0.61760842  0.63113722    -0.06000
H2962       H  0.59189498  0.61050822  0.70132402     0.14700
C2963       C  0.59917464  0.66366871  0.78609678    -0.16200
H2964       H  0.61968023  0.67132895  0.71337612     0.09000
H2965       H  0.67660846  0.66967705  0.59499528     0.06900
H2966       H  0.66990786  0.68639310  0.63599036     0.08100
H2967       H  0.67102297  0.69229339  0.57782707     0.07100
H2968       H  0.58630168  0.66514291  0.63682916     0.02000
H2969       H  0.58872088  0.64603756  0.59946052     0.02500
H2970       H  0.58376608  0.66793040  0.57691545     0.06000
H2971       H  0.60799885  0.60420989  0.63445880     0.05000
H2972       H  0.62944050  0.61548321  0.63022970    -0.00800
H2973       H  0.61035150  0.62368250  0.59860173     0.00700
H2974       H  0.60800268  0.67579753  0.78566603     0.04300
H2975       H  0.60202106  0.65601803  0.81761998     0.06300
H2976       H  0.58502492  0.66848544  0.78658448     0.07100
C2977       C  0.45662550  0.65334223  0.85504089    -0.22500
C2978       C  0.45892795  0.67149978  0.86705956     0.09500
C2979       C  0.47625701  0.67932465  0.86486642     0.09900
C2980       C  0.49100467  0.66864178  0.85182770    -0.17400
C2981       C  0.48885038  0.65027351  0.84123618    -0.27800
C2982       C  0.47130507  0.64268074  0.84136353     0.18200
C2983       C  0.44329296  0.68160954  0.88539362     0.12200
C2984       C  0.47919498  0.69885966  0.87695849    -0.12200
H2985       H  0.50438808  0.67455153  0.85094868     0.12500
C2986       C  0.46737927  0.62371436  0.82571351    -0.23000
H2987       H  0.44323908  0.64744470  0.85633380     0.08100
C2988       C  0.43107874  0.69106409  0.85743676     0.04500
C2989       C  0.41636396  0.70014952  0.87714530    -0.20200
C2990       C  0.41378471  0.70014176  0.92422732    -0.12500
C2991       C  0.42609421  0.69051081  0.95205177     0.13200
C2992       C  0.44061925  0.68138203  0.93216209    -0.23000
C2993       C  0.43364639  0.69157157  0.80698347    -0.06000
H2994       H  0.40698552  0.70747766  0.85581466     0.14700
C2995       C  0.42375795  0.68918319  0.00264995    -0.16200
H2996       H  0.45001346  0.67394813  0.95323740     0.09000
H2997       H  0.45715304  0.62414914  0.79831569     0.06900
H2998       H  0.46193225  0.61564730  0.85430474     0.08100
H2999       H  0.47932466  0.61669956  0.81185996     0.07100
H3000       H  0.47515077  0.70120767  0.91258538     0.02000
H3001       H  0.47098871  0.70762213  0.85448530     0.02500
H3002       H  0.49355755  0.70286417  0.87319843     0.06000
H3003       H  0.42294848  0.69960507  0.79003551     0.05000
H3004       H  0.43323799  0.67762856  0.79329450    -0.00800
H3005       H  0.44688198  0.69776819  0.79872271     0.00700
H3006       H  0.43388136  0.68003448  0.01820403     0.04300
H3007       H  0.41016898  0.68376760  0.01077634     0.06300
H3008       H  0.42551811  0.70265223  0.01839338     0.07100
C3009       C  0.52039737  0.58589313  0.02592534    -0.22500
C3010       C  0.52341404  0.60088437  0.05363326     0.09500
C3011       C  0.53291010  0.61597319  0.03690236     0.09900
C3012       C  0.53848043  0.61608020  0.99182137    -0.17400
C3013       C  0.53477570  0.60145765  0.96319870    -0.27800
C3014       C  0.52617023  0.58586721  0.98081124     0.18200
C3015       C  0.51531179  0.60131251  0.09895540     0.12200
C3016       C  0.53666646  0.63217771  0.06623110    -0.12200
H3017       H  0.54501324  0.62802280  0.97831623     0.12500
C3018       C  0.52314789  0.56892920  0.95363628    -0.23000
H3019       H  0.51326936  0.57426784  0.03942417     0.08100
C3020       C  0.49825300  0.60923088  0.10560868     0.04500
C3021       C  0.49201011  0.61180329  0.14963967    -0.20200
C3022       C  0.50240705  0.60656400  0.18695240    -0.12500
C3023       C  0.51920614  0.59789713  0.18026802     0.13200
C3024       C  0.52542774  0.59532521  0.13601050    -0.23000
C3025       C  0.48688510  0.61539535  0.06626510    -0.06000
H3026       H  0.47910949  0.61836011  0.15509134     0.14700
C3027       C  0.53137456  0.59211850  0.21845074    -0.16200
H3028       H  0.53857085  0.58932150  0.13039400     0.09000
H3029       H  0.50845337  0.56656307  0.94954779     0.06900
H3030       H  0.52912407  0.55723228  0.97180565     0.08100
H3031       H  0.52952788  0.56936242  0.91981730     0.07100
H3032       H  0.54484858  0.62802037  0.09588836     0.02000
H3033       H  0.52380476  0.63815253  0.07820025     0.02500
H3034       H  0.54422522  0.64281406  0.04761987     0.06000
H3035       H  0.47387545  0.62128087  0.07760680     0.05000
H3036       H  0.48388143  0.60372777  0.04400067    -0.00800
H3037       H  0.49419256  0.62585457  0.04650682     0.00700
H3038       H  0.53365826  0.57731743  0.21658075     0.04300
H3039       H  0.52589707  0.59523881  0.25228962     0.06300
H3040       H  0.54456267  0.59912458  0.21528086     0.07100
C3041       C  0.52152557  0.60932019  0.60457404    -0.22500
C3042       C  0.50287791  0.61018832  0.59713629     0.09500
C3043       C  0.49099183  0.61208860  0.63398603     0.09900
C3044       C  0.49811397  0.61387736  0.67750392    -0.17400
C3045       C  0.51680286  0.61394770  0.68477911    -0.27800
C3046       C  0.52869925  0.61104389  0.64810416     0.18200
C3047       C  0.49615632  0.61019677  0.55026659     0.12200
C3048       C  0.47086878  0.61293053  0.62723910    -0.12200
H3049       H  0.48906010  0.61593884  0.70582673     0.12500
C3050       C  0.54886304  0.60926125  0.65351344    -0.23000
H3051       H  0.53054321  0.60747830  0.57608140     0.08100
C3052       C  0.49855469  0.62543869  0.52218752     0.04500
C3053       C  0.49211075  0.62490564  0.47787805    -0.20200
C3054       C  0.48324513  0.60959478  0.46122581    -0.12500
C3055       C  0.48054437  0.59441923  0.48942390     0.13200
C3056       C  0.48710119  0.59491829  0.53383613    -0.23000
C3057       C  0.50781754  0.64228848  0.53890059    -0.06000
H3058       H  0.49423903  0.63641656  0.45572288     0.14700
C3059       C  0.47148847  0.57736037  0.47343468    -0.16200
H3060       H  0.48536568  0.58324314  0.55561977     0.09000
H3061       H  0.55571359  0.62057672  0.63574779     0.06900
H3062       H  0.55337658  0.59631685  0.63836984     0.08100
H3063       H  0.55332599  0.60911130  0.68920631     0.07100
H3064       H  0.46597888  0.60008842  0.61235512     0.02000
H3065       H  0.46745513  0.62430252  0.60425135     0.02500
H3066       H  0.46361253  0.61501953  0.65965346     0.06000
H3067       H  0.50797690  0.65309687  0.51278055     0.05000
H3068       H  0.52201046  0.63924882  0.54796052    -0.00800
H3069       H  0.50064474  0.64755016  0.56906258     0.00700
H3070       H  0.48099021  0.56584350  0.47668737     0.04300
H3071       H  0.46707363  0.57808048  0.43771968     0.06300
H3072       H  0.45943554  0.57462278  0.49465653     0.07100
C3073       C  0.45621468  0.35652617  0.70758495    -0.22500
C3074       C  0.44947958  0.35958756  0.66408602     0.09500
C3075       C  0.45752268  0.37285466  0.63628293     0.09900
C3076       C  0.47241719  0.38254790  0.65241561    -0.17400
C3077       C  0.47957150  0.37922556  0.69558598    -0.27800
C3078       C  0.47117893  0.36612859  0.72384018     0.18200
C3079       C  0.43378610  0.34893565  0.64853316     0.12200
C3080       C  0.45063318  0.37655635  0.58925300    -0.12200
H3081       H  0.47873142  0.39254896  0.63074024     0.12500
C3082       C  0.47748257  0.36242304  0.77145381    -0.23000
H3083       H  0.44970388  0.34650328  0.72885350     0.08100
C3084       C  0.43553135  0.33081121  0.63459220     0.04500
C3085       C  0.42032576  0.32162780  0.61814467    -0.20200
C3086       C  0.40348228  0.33022478  0.61494159    -0.12500
C3087       C  0.40188430  0.34853144  0.62859481     0.13200
C3088       C  0.41697461  0.35742373  0.64628771    -0.23000
C3089       C  0.45350800  0.32135827  0.63592769    -0.06000
H3090       H  0.42163693  0.30773671  0.60707179     0.14700
C3091       C  0.38505894  0.35971982  0.62248617    -0.16200
H3092       H  0.41580450  0.37140582  0.65673471     0.09000
H3093       H  0.49115866  0.35636074  0.77099580     0.06900
H3094       H  0.46847137  0.35274791  0.78926686     0.08100
H3095       H  0.47764034  0.37517471  0.79115430     0.07100
H3096       H  0.43650253  0.38143230  0.59075458     0.02000
H3097       H  0.45119828  0.36398977  0.56890121     0.02500
H3098       H  0.45879482  0.38703992  0.57172270     0.06000
H3099       H  0.45257160  0.30733112  0.62289052     0.05000
H3100       H  0.45851724  0.32070171  0.67122821    -0.00800
H3101       H  0.46338748  0.32885875  0.61479628     0.00700
H3102       H  0.37993601  0.36402044  0.65602734     0.04300
H3103       H  0.37411404  0.35272461  0.60445356     0.06300
H3104       H  0.38833570  0.37195053  0.60224697     0.07100
C3105       C  0.53216652  0.42872785  0.50050322    -0.22500
C3106       C  0.51394260  0.42702687  0.48905118     0.09500
C3107       C  0.50065593  0.42736023  0.52309902     0.09900
C3108       C  0.50598830  0.42823817  0.56837646    -0.17400
C3109       C  0.52430648  0.42882948  0.58031117    -0.27800
C3110       C  0.53754061  0.43005696  0.54578618     0.18200
C3111       C  0.50898476  0.42349861  0.44167795     0.12200
C3112       C  0.48087059  0.42636654  0.51163992    -0.12200
H3113       H  0.49579986  0.42747185  0.59460613     0.12500
C3114       C  0.55730649  0.43310394  0.55506290    -0.23000
H3115       H  0.54225569  0.42883880  0.47396677     0.08100
C3116       C  0.50762083  0.43746352  0.40944423     0.04500
C3117       C  0.50143447  0.43336705  0.36586137    -0.20200
C3118       C  0.49610679  0.41573058  0.35455934    -0.12500
C3119       C  0.49769454  0.40171842  0.38704432     0.13200
C3120       C  0.50445045  0.40578446  0.42993376    -0.23000
C3121       C  0.51213084  0.45668374  0.42155560    -0.06000
H3122       H  0.50008912  0.44409333  0.34106164     0.14700
C3123       C  0.49238845  0.38245187  0.37708185    -0.16200
H3124       H  0.50561069  0.39520173  0.45517748     0.09000
H3125       H  0.56211304  0.44483026  0.53488754     0.06900
H3126       H  0.56511854  0.42096027  0.54508345     0.08100
H3127       H  0.56019466  0.43635714  0.59082577     0.07100
H3128       H  0.47781258  0.41342657  0.49440473     0.02000
H3129       H  0.47722654  0.43778027  0.48900248     0.02500
H3130       H  0.47228432  0.42716382  0.54233554     0.06000
H3131       H  0.50998252  0.46600897  0.39258714     0.05000
H3132       H  0.52648063  0.45762511  0.43193248    -0.00800
H3133       H  0.50342682  0.46119469  0.44991074     0.00700
H3134       H  0.47762756  0.38149664  0.37162960     0.04300
H3135       H  0.49958791  0.37759325  0.34663814     0.06300
H3136       H  0.49578474  0.37323075  0.40549616     0.07100
C3137       C  0.51004021  0.41466646  0.93989527    -0.22500
C3138       C  0.49189393  0.41944989  0.94462893     0.09500
C3139       C  0.48082318  0.42111048  0.90623980     0.09900
C3140       C  0.48819925  0.41779648  0.86352116    -0.17400
C3141       C  0.50635498  0.41271859  0.85840266    -0.27800
C3142       C  0.51747806  0.41119289  0.89724291     0.18200
C3143       C  0.48457947  0.42163396  0.99051607     0.12200
C3144       C  0.46124562  0.42628389  0.91046449    -0.12200
H3145       H  0.47962959  0.41892866  0.83396700     0.12500
C3146       C  0.53719394  0.40628479  0.89431235    -0.23000
H3147       H  0.51832960  0.41338952  0.96993466     0.08100
C3148       C  0.47736272  0.40672947  0.01401671     0.04500
C3149       C  0.47124401  0.40910017  0.05821310    -0.20200
C3150       C  0.47251637  0.42591535  0.07971639    -0.12500
C3151       C  0.47950150  0.44096773  0.05593213     0.13200
C3152       C  0.48549139  0.43859488  0.01136138    -0.23000
C3153       C  0.47662256  0.38821910  0.99296087    -0.06000
H3154       H  0.46617681  0.39752576  0.07686715     0.14700
C3155       C  0.48051020  0.45964230  0.07596896    -0.16200
H3156       H  0.49101362  0.44998601  0.99283376     0.09000
H3157       H  0.53872526  0.39229688  0.88147783     0.06900
H3158       H  0.54387799  0.40683581  0.92787587     0.08100
H3159       H  0.54431177  0.41587703  0.87154770     0.07100
H3160       H  0.46013299  0.43974749  0.92666211     0.02000
H3161       H  0.45397545  0.41618146  0.93142469     0.02500
H3162       H  0.45450999  0.42697021  0.87698129     0.06000
H3163       H  0.47068821  0.37806113  0.01634280     0.05000
H3164       H  0.49045380  0.38372216  0.98408321    -0.00800
H3165       H  0.46824986  0.38858308  0.96191491     0.00700
H3166       H  0.49481927  0.46397758  0.07812252     0.04300
H3167       H  0.47442055  0.46048995  0.11008652     0.06300
H3168       H  0.47309220  0.46926035  0.05392769     0.07100
C3169       C  0.56673319  0.49270743  0.76114752    -0.22500
C3170       C  0.55246771  0.50328397  0.77731387     0.09500
C3171       C  0.53506289  0.49577450  0.78057035     0.09900
C3172       C  0.53219086  0.47795569  0.76666446    -0.17400
C3173       C  0.54623049  0.46732016  0.74886956    -0.27800
C3174       C  0.56389152  0.47477732  0.74686777     0.18200
C3175       C  0.55531277  0.52276591  0.78609157     0.12200
C3176       C  0.51934939  0.50675373  0.79762644    -0.12200
H3177       H  0.51865347  0.47249591  0.76872218     0.12500
C3178       C  0.57982646  0.46411906  0.72996934    -0.23000
H3179       H  0.58004653  0.49868224  0.75869690     0.08100
C3180       C  0.55876175  0.52948699  0.82984556     0.04500
C3181       C  0.55825046  0.54824304  0.83725732    -0.20200
C3182       C  0.55396132  0.56024370  0.80202221    -0.12500
C3183       C  0.55139543  0.55350654  0.75784130     0.13200
C3184       C  0.55228183  0.53483840  0.75037500    -0.23000
C3185       C  0.56239183  0.51685428  0.86876092    -0.06000
H3186       H  0.56019114  0.55347496  0.87109613     0.14700
C3187       C  0.54769721  0.56595298  0.71850415    -0.16200
H3188       H  0.54971805  0.52952808  0.71687037     0.09000
H3189       H  0.58135375  0.45155632  0.75014204     0.06900
H3190       H  0.59259535  0.47188262  0.73286418     0.08100
H3191       H  0.57795846  0.46071453  0.69377091     0.07100
H3192       H  0.51728166  0.51871814  0.77554335     0.02000
H3193       H  0.52202009  0.51135702  0.83264424     0.02500
H3194       H  0.50663687  0.49881168  0.79793050     0.06000
H3195       H  0.56476755  0.52433209  0.90071383     0.05000
H3196       H  0.57454335  0.50862218  0.86137575    -0.00800
H3197       H  0.55070567  0.50771262  0.87398306     0.00700
H3198       H  0.54696593  0.55846476  0.68607604     0.04300
H3199       H  0.55869754  0.57607251  0.71570675     0.06300
H3200       H  0.53463654  0.57300163  0.72318392     0.07100
C3201       C  0.58913082  0.22802514  0.07707557    -0.22500
C3202       C  0.59647470  0.21727253  0.11136459     0.09500
C3203       C  0.61335708  0.22182345  0.12991186     0.09900
C3204       C  0.62234155  0.23736362  0.11456149    -0.17400
C3205       C  0.61499523  0.24850626  0.08055415    -0.27800
C3206       C  0.59813885  0.24350729  0.06108856     0.18200
C3207       C  0.58613254  0.20138641  0.12775959     0.12200
C3208       C  0.62188454  0.21025647  0.16599145    -0.12200
H3209       H  0.63522767  0.24079195  0.12948879     0.12500
C3210       C  0.58939638  0.25414107  0.02346391    -0.23000
H3211       H  0.57618916  0.22425794  0.06286705     0.08100
C3212       C  0.57351452  0.20294329  0.16310446     0.04500
C3213       C  0.56428416  0.18749728  0.17818332    -0.20200
C3214       C  0.56737284  0.17034536  0.15897615    -0.12500
C3215       C  0.58001389  0.16895244  0.12293366     0.13200
C3216       C  0.58913351  0.18452453  0.10785506    -0.23000
C3217       C  0.56993682  0.22091630  0.18518151    -0.06000
H3218       H  0.55471034  0.18888446  0.20561925     0.14700
C3219       C  0.58439268  0.15121589  0.10052187    -0.16200
H3220       H  0.59888479  0.18354500  0.08064530     0.09000
H3221       H  0.58636749  0.26806426  0.03503287     0.06900
H3222       H  0.57646455  0.24798087  0.01245537     0.08100
H3223       H  0.59845156  0.25453674  0.99357359     0.07100
H3224       H  0.62402926  0.19638672  0.15285331     0.02000
H3225       H  0.61295101  0.20961013  0.19605571     0.02500
H3226       H  0.63514769  0.21570036  0.17686348     0.06000
H3227       H  0.55969866  0.21980690  0.21245780     0.05000
H3228       H  0.56489314  0.23067866  0.15960846    -0.00800
H3229       H  0.58256822  0.22624060  0.20025030     0.00700
H3230       H  0.57208857  0.14550655  0.08465048     0.04300
H3231       H  0.58990438  0.14159278  0.12582264     0.06300
H3232       H  0.59467246  0.15281492  0.07348742     0.07100
C3233       C  0.60887421  0.37361866  0.94359385    -0.22500
C3234       C  0.61913738  0.37653968  0.90463905     0.09500
C3235       C  0.63672047  0.36941150  0.90142114     0.09900
C3236       C  0.64279077  0.35746514  0.93507195    -0.17400
C3237       C  0.63146381  0.35272178  0.97112426    -0.27800
C3238       C  0.61477603  0.36166586  0.97691146     0.18200
C3239       C  0.60934861  0.38322949  0.86481243     0.12200
C3240       C  0.64867360  0.37396827  0.86184782    -0.12200
H3241       H  0.65575455  0.35086629  0.93153551     0.12500
C3242       C  0.60279836  0.35813730  0.01721476    -0.23000
H3243       H  0.59547239  0.37940914  0.94591123     0.08100
C3244       C  0.60169562  0.37069674  0.83450744     0.04500
C3245       C  0.58931058  0.37676315  0.80258389    -0.20200
C3246       C  0.58336999  0.39474325  0.80208708    -0.12500
C3247       C  0.59109664  0.40740931  0.83224563     0.13200
C3248       C  0.60434238  0.40147044  0.86273847    -0.23000
C3249       C  0.60529044  0.35064841  0.83821281    -0.06000
H3250       H  0.58335295  0.36709238  0.77947358     0.14700
C3251       C  0.58489415  0.42674428  0.83615895    -0.16200
H3252       H  0.60981298  0.41082649  0.88732671     0.09000
H3253       H  0.59791862  0.34398298  0.01690934     0.06900
H3254       H  0.59073122  0.36702309  0.01722900     0.08100
H3255       H  0.61042296  0.36075197  0.04879736     0.07100
H3256       H  0.65088365  0.38879572  0.86064546     0.02000
H3257       H  0.64234831  0.36966965  0.82968064     0.02500
H3258       H  0.66201430  0.36725072  0.86461663     0.06000
H3259       H  0.59759628  0.34282570  0.81266990     0.05000
H3260       H  0.60119597  0.34568739  0.87215040    -0.00800
H3261       H  0.61979046  0.34776171  0.83295738     0.00700
H3262       H  0.58050829  0.42939084  0.87142002     0.04300
H3263       H  0.57336756  0.43013840  0.81411124     0.06300
H3264       H  0.59625134  0.43594934  0.82781502     0.07100
C3265       C  0.56146766  0.33503567  0.11684500    -0.22500
C3266       C  0.56404455  0.35044166  0.14341305     0.09500
C3267       C  0.58169289  0.35554042  0.15563327     0.09900
C3268       C  0.59642689  0.34545978  0.13967553    -0.17400
C3269       C  0.59405767  0.33026208  0.11166911    -0.27800
C3270       C  0.57614951  0.32483724  0.10082006     0.18200
C3271       C  0.54801444  0.36090683  0.15850311     0.12200
C3272       C  0.58498527  0.37184812  0.18484387    -0.12200
H3273       H  0.60993744  0.34974851  0.14854916     0.12500
C3274       C  0.57216405  0.30866523  0.07158435    -0.23000
H3275       H  0.54781843  0.33111062  0.10817260     0.08100
C3276       C  0.53934775  0.37350145  0.12994661     0.04500
C3277       C  0.52423478  0.38304854  0.14596720    -0.20200
C3278       C  0.51740968  0.38017607  0.18982427    -0.12500
C3279       C  0.52629907  0.36756843  0.21842020     0.13200
C3280       C  0.54141510  0.35811808  0.20227899    -0.23000
C3281       C  0.54615044  0.37693082  0.08271257    -0.06000
H3282       H  0.51761811  0.39270579  0.12391314     0.14700
C3283       C  0.52049219  0.36443771  0.26661084    -0.16200
H3284       H  0.54823440  0.34850072  0.22402335     0.09000
H3285       H  0.57819943  0.31057353  0.03756198     0.06900
H3286       H  0.55744765  0.30660185  0.06687683     0.08100
H3287       H  0.57762187  0.29625522  0.08767017     0.07100
H3288       H  0.57836494  0.36995908  0.21817703     0.02000
H3289       H  0.57937715  0.38406808  0.16817893     0.02500
H3290       H  0.59959630  0.37413510  0.19078871     0.06000
H3291       H  0.53799621  0.38734770  0.06498732     0.05000
H3292       H  0.54548708  0.36427648  0.06273063    -0.00800
H3293       H  0.56034417  0.38169002  0.08399023     0.00700
H3294       H  0.50679733  0.35840254  0.26754355     0.04300
H3295       H  0.52061498  0.37746392  0.28511106     0.06300
H3296       H  0.52967274  0.35500454  0.28460126     0.07100
C3297       C  0.77445022  0.31655695  0.04416927    -0.22500
C3298       C  0.76186797  0.32204892  0.01162891     0.09500
C3299       C  0.76804142  0.32848537  0.96936718     0.09900
C3300       C  0.78659060  0.32779273  0.95921204    -0.17400
C3301       C  0.79903500  0.32090840  0.99059025    -0.27800
C3302       C  0.79296350  0.31618767  0.03452592     0.18200
C3303       C  0.74235050  0.31930922  0.02116950     0.12200
C3304       C  0.75497373  0.33534341  0.93440505    -0.12200
H3305       H  0.79123578  0.33165324  0.92582013     0.12500
C3306       C  0.80560829  0.31081610  0.07219932    -0.23000
H3307       H  0.76973114  0.31209716  0.07706403     0.08100
C3308       C  0.73467183  0.30189347  0.01933159     0.04500
C3309       C  0.71631419  0.29961365  0.02912348    -0.20200
C3310       C  0.70514035  0.31431824  0.04045276    -0.12500
C3311       C  0.71286618  0.33189462  0.04151940     0.13200
C3312       C  0.73139260  0.33409686  0.03211527    -0.23000
C3313       C  0.74579533  0.28567157  0.00625468    -0.06000
H3314       H  0.71070574  0.28610639  0.02801177     0.14700
C3315       C  0.70176252  0.34845425  0.05142649    -0.16200
H3316       H  0.73740382  0.34745304  0.03321225     0.09000
H3317       H  0.80303347  0.29658096  0.08215881     0.06900
H3318       H  0.80319187  0.31961784  0.10192512     0.08100
H3319       H  0.82003259  0.31233844  0.06315940     0.07100
H3320       H  0.74758925  0.34720506  0.94789706     0.02000
H3321       H  0.74516368  0.32456394  0.92570914     0.02500
H3322       H  0.76197116  0.33959656  0.90293336     0.06000
H3323       H  0.73757616  0.27312960  0.00527133     0.05000
H3324       H  0.75681021  0.28357727  0.03108050    -0.00800
H3325       H  0.75170287  0.28780984  0.97216333     0.00700
H3326       H  0.69636793  0.34776028  0.08637166     0.04300
H3327       H  0.69048268  0.34947393  0.02687856     0.06300
H3328       H  0.70988588  0.36102449  0.04867391     0.07100
C3329       C  0.89709528  0.23403021  0.87778738    -0.22500
C3330       C  0.90789587  0.22489845  0.90921843     0.09500
C3331       C  0.90878150  0.23109825  0.95414627     0.09900
C3332       C  0.89854284  0.24619819  0.96689014    -0.17400
C3333       C  0.88732926  0.25519816  0.93578537    -0.27800
C3334       C  0.88678930  0.24912300  0.89034968     0.18200
C3335       C  0.91796406  0.20870328  0.89421513     0.12200
C3336       C  0.92047527  0.22171307  0.98855286    -0.12200
H3337       H  0.89911220  0.25083922  0.00159681     0.12500
C3338       C  0.87586020  0.25869126  0.85454333    -0.23000
H3339       H  0.89667416  0.22920853  0.84321656     0.08100
C3340       C  0.91001353  0.19144004  0.89523392     0.04500
C3341       C  0.91967033  0.17659711  0.87861403    -0.20200
C3342       C  0.93699652  0.17856585  0.85957935    -0.12500
C3343       C  0.94506280  0.19603971  0.85941672     0.13200
C3344       C  0.93542140  0.21079804  0.87702919    -0.23000
C3345       C  0.89115761  0.18875594  0.91304197    -0.06000
H3346       H  0.91329393  0.16342732  0.87929793     0.14700
C3347       C  0.96362843  0.19954993  0.84046299    -0.16200
H3348       H  0.94135860  0.22418543  0.87654043     0.09000
H3349       H  0.87806863  0.25277702  0.82052368     0.06900
H3350       H  0.87976781  0.27316897  0.85293828     0.08100
H3351       H  0.86125524  0.25751448  0.86216257     0.07100
H3352       H  0.93475901  0.22207018  0.97733457     0.02000
H3353       H  0.91615149  0.20743434  0.99238982     0.02500
H3354       H  0.91962280  0.22828364  0.02219579     0.06000
H3355       H  0.88690265  0.17438647  0.91126474     0.05000
H3356       H  0.88152011  0.19688812  0.89275236    -0.00800
H3357       H  0.89044084  0.19309064  0.94887219     0.00700
H3358       H  0.96776541  0.21387385  0.84466680     0.04300
H3359       H  0.97371156  0.19105137  0.85831232     0.06300
H3360       H  0.96383072  0.19661113  0.80369687     0.07100
C3361       C  0.87686401  0.38675371  0.07802397    -0.22500
C3362       C  0.88361749  0.38088007  0.11984754     0.09500
C3363       C  0.88189467  0.36254098  0.13247007     0.09900
C3364       C  0.87440861  0.35031346  0.10193705    -0.17400
C3365       C  0.86903984  0.35581660  0.05868149    -0.27800
C3366       C  0.86965867  0.37433713  0.04694291     0.18200
C3367       C  0.89504185  0.39303086  0.14721022     0.12200
C3368       C  0.88914664  0.35553945  0.17682878    -0.12200
H3369       H  0.87383517  0.33608766  0.11075116     0.12500
C3370       C  0.86403682  0.38081827  0.00077223    -0.23000
H3371       H  0.87831347  0.40083686  0.06863552     0.08100
C3372       C  0.91337721  0.39543408  0.13586946     0.04500
C3373       C  0.92537223  0.40156230  0.16894624    -0.20200
C3374       C  0.91945307  0.40530270  0.21293261    -0.12500
C3375       C  0.90078180  0.40466684  0.22292672     0.13200
C3376       C  0.88876597  0.39867025  0.18955759    -0.23000
C3377       C  0.92053555  0.39028689  0.08997590    -0.06000
H3378       H  0.93967152  0.40225560  0.16137218     0.14700
C3379       C  0.89311144  0.40867122  0.26899036    -0.16200
H3380       H  0.87464245  0.39683575  0.19795461     0.09000
H3381       H  0.84956553  0.37770442  0.99519615     0.06900
H3382       H  0.86588771  0.39563714  0.99696930     0.08100
H3383       H  0.87226393  0.37402805  0.97444897     0.07100
H3384       H  0.88205687  0.36215903  0.20534681     0.02000
H3385       H  0.90382452  0.35836134  0.17921147     0.02500
H3386       H  0.88719625  0.34072140  0.18038830     0.06000
H3387       H  0.93527608  0.39273271  0.08719196     0.05000
H3388       H  0.91372895  0.39846228  0.06352349    -0.00800
H3389       H  0.91802922  0.37572879  0.08355379     0.00700
H3390       H  0.88311986  0.41977916  0.26615705     0.04300
H3391       H  0.90337293  0.41279779  0.29396696     0.06300
H3392       H  0.88618724  0.39645649  0.28228236     0.07100
C3393       C  0.94095014  0.34057209  0.91318740    -0.22500
C3394       C  0.93969320  0.35044504  0.87300366     0.09500
C3395       C  0.92306055  0.35156182  0.85011227     0.09900
C3396       C  0.90772024  0.34341333  0.86922983    -0.17400
C3397       C  0.90880217  0.33381343  0.91015317    -0.27800
C3398       C  0.92576404  0.33217725  0.93211130     0.18200
C3399       C  0.95567521  0.36078003  0.85790938     0.12200
C3400       C  0.92153943  0.36149217  0.80580748    -0.12200
H3401       H  0.89482651  0.34462547  0.85230734     0.12500
C3402       C  0.92794808  0.32244204  0.97665387    -0.23000
H3403       H  0.95381448  0.33989480  0.93044625     0.08100
C3404       C  0.95863982  0.37852748  0.87332601     0.04500
C3405       C  0.97413277  0.38781917  0.85942116    -0.20200
C3406       C  0.98684712  0.37978473  0.83056608    -0.12500
C3407       C  0.98381682  0.36191208  0.81505468     0.13200
C3408       C  0.96825582  0.35260549  0.82919543    -0.23000
C3409       C  0.94545348  0.38764192  0.90462683    -0.06000
H3410       H  0.97638405  0.40145365  0.87147171     0.14700
C3411       C  0.99644449  0.35277598  0.78242693    -0.16200
H3412       H  0.96581118  0.33893301  0.81769882     0.09000
H3413       H  0.94191381  0.32355110  0.98990575     0.06900
H3414       H  0.91873098  0.32835650  0.00223421     0.08100
H3415       H  0.92500105  0.30784433  0.97242872     0.07100
H3416       H  0.93070062  0.35523857  0.78061598     0.02000
H3417       H  0.92535065  0.37587477  0.81032132     0.02500
H3418       H  0.90759387  0.36099769  0.79219376     0.06000
H3419       H  0.94982180  0.40155127  0.91341528     0.05000
H3420       H  0.94422903  0.37976318  0.93645592    -0.00800
H3421       H  0.93202239  0.38853250  0.88824707     0.00700
H3422       H  0.99137879  0.33927833  0.77210453     0.04300
H3423       H  0.00977643  0.35076235  0.79843054     0.06300
H3424       H  0.99796170  0.36116064  0.75148444     0.07100
C3425       C  0.67050805  0.26582955  0.35090247    -0.22500
C3426       C  0.66126120  0.28158676  0.33855704     0.09500
C3427       C  0.65051833  0.29066270  0.37057614     0.09900
C3428       C  0.64822761  0.28303275  0.41352382    -0.17400
C3429       C  0.65668080  0.26674885  0.42513272    -0.27800
C3430       C  0.66844706  0.25829358  0.39409084     0.18200
C3431       C  0.66099771  0.28691730  0.29054684     0.12200
C3432       C  0.64133325  0.30824183  0.35915684    -0.12200
H3433       H  0.63950645  0.28959164  0.43791385     0.12500
C3434       C  0.67834813  0.24098001  0.40443841    -0.23000
H3435       H  0.67874043  0.25893814  0.32602606     0.08100
C3436       C  0.67559450  0.29588153  0.26970786     0.04500
C3437       C  0.67454538  0.30008721  0.22349040    -0.20200
C3438       C  0.65917395  0.29555261  0.19842821    -0.12500
C3439       C  0.64449559  0.28676447  0.21945962     0.13200
C3440       C  0.64567433  0.28243471  0.26529634    -0.23000
C3441       C  0.69208575  0.30109247  0.29629215    -0.06000
H3442       H  0.68567894  0.30688307  0.20687659     0.14700
C3443       C  0.62746510  0.28165041  0.19459619    -0.16200
H3444       H  0.63453406  0.27548851  0.28158253     0.09000
H3445       H  0.69310364  0.24341459  0.40240968     0.06900
H3446       H  0.67467138  0.23056614  0.37913608     0.08100
H3447       H  0.67527154  0.23544007  0.43838762     0.07100
H3448       H  0.63159328  0.30623299  0.33116590     0.02000
H3449       H  0.65158505  0.31836544  0.34869204     0.02500
H3450       H  0.63383909  0.31375834  0.38855346     0.06000
H3451       H  0.70212580  0.30826264  0.27491019     0.05000
H3452       H  0.69860018  0.28881339  0.31036756    -0.00800
H3453       H  0.68817254  0.31017253  0.32445075     0.00700
H3454       H  0.62570376  0.26675693  0.19565600     0.04300
H3455       H  0.62743459  0.28594502  0.15870838     0.06300
H3456       H  0.61569686  0.28809746  0.21122149     0.07100
C3457       C  0.64422758  0.25482602  0.76429304    -0.22500
C3458       C  0.66045318  0.25315938  0.78804063     0.09500
C3459       C  0.67557669  0.24520657  0.76711831     0.09900
C3460       C  0.67429627  0.23980926  0.72170102    -0.17400
C3461       C  0.65823053  0.24230648  0.69744070    -0.27800
C3462       C  0.64287438  0.24946377  0.71926090     0.18200
C3463       C  0.66079338  0.26002148  0.83477919     0.12200
C3464       C  0.69305053  0.24288952  0.79230194    -0.12200
H3465       H  0.68599156  0.23430016  0.70462766     0.12500
C3466       C  0.62479444  0.25148646  0.69631172    -0.23000
H3467       H  0.63255462  0.26059025  0.78098669     0.08100
C3468       C  0.66128126  0.27874792  0.84338819     0.04500
C3469       C  0.65744978  0.28500804  0.88699632    -0.20200
C3470       C  0.65310649  0.27294871  0.92201173    -0.12500
C3471       C  0.65317807  0.25409779  0.91358011     0.13200
C3472       C  0.65730865  0.24790389  0.87007158    -0.23000
C3473       C  0.66557083  0.29208922  0.80634153    -0.06000
H3474       H  0.65761622  0.29940293  0.89370573     0.14700
C3475       C  0.64773275  0.24012500  0.94824705    -0.16200
H3476       H  0.65663991  0.23355531  0.86289608     0.09000
H3477       H  0.62075221  0.26592152  0.69611427     0.06900
H3478       H  0.61450576  0.24365495  0.71534638     0.08100
H3479       H  0.62466889  0.24650350  0.66102441     0.07100
H3480       H  0.69089324  0.23405879  0.82220329     0.02000
H3481       H  0.69805343  0.25625980  0.80372405     0.02500
H3482       H  0.70358997  0.23662103  0.77075760     0.15600
H3483       H  0.66567277  0.30619865  0.81903218     0.05000
H3484       H  0.65533920  0.29119029  0.77908012    -0.00800
H3485       H  0.67908742  0.28908448  0.79206480     0.00700
H3486       H  0.63666438  0.23168006  0.93439246     0.04300
H3487       H  0.64265202  0.24591844  0.98020941     0.06300
H3488       H  0.65942697  0.23128082  0.95593428     0.07100
C3489       C  0.61167627  0.13823457  0.33981747    -0.22500
C3490       C  0.60613248  0.14908535  0.37589750     0.09500
C3491       C  0.58760042  0.15137231  0.38469140     0.09900
C3492       C  0.57498738  0.14366140  0.35548752    -0.17400
C3493       C  0.58033288  0.13418111  0.31654242    -0.27800
C3494       C  0.59900376  0.13063245  0.30996561     0.18200
C3495       C  0.61940125  0.16041654  0.39994236     0.12200
C3496       C  0.58107526  0.16299607  0.42324776    -0.12200
H3497       H  0.56083842  0.14622557  0.36170779     0.12500
C3498       C  0.60587863  0.11930886  0.27137768    -0.23000
H3499       H  0.62596708  0.13650583  0.33369956     0.08100
C3500       C  0.62521057  0.15619774  0.44395715     0.04500
C3501       C  0.63248550  0.16994982  0.47100754    -0.20200
C3502       C  0.63387290  0.18784457  0.45492094    -0.12500
C3503       C  0.63011311  0.19134693  0.40858591     0.13200
C3504       C  0.62300536  0.17749448  0.38177406    -0.23000
C3505       C  0.62301021  0.13739750  0.46273365    -0.06000
H3506       H  0.63589072  0.16690910  0.50580812     0.14700
C3507       C  0.63277381  0.20966534  0.38709035    -0.16200
H3508       H  0.61874113  0.18043422  0.34746929     0.09000
H3509       H  0.62063950  0.11698138  0.27382765     0.06900
H3510       H  0.60333921  0.12620617  0.23866701     0.08100
H3511       H  0.59915659  0.10591865  0.27188938     0.07100
H3512       H  0.58609762  0.17702995  0.41897295     0.02000
H3513       H  0.58603018  0.15751141  0.45586614     0.02500
H3514       H  0.56612078  0.16352179  0.42490977     0.06000
H3515       H  0.62828418  0.13633775  0.49776244     0.05000
H3516       H  0.63053852  0.12770853  0.44124058    -0.00800
H3517       H  0.60856036  0.13351096  0.46318157     0.00700
H3518       H  0.63094780  0.20918436  0.34984817     0.04300
H3519       H  0.64665005  0.21454514  0.39382391     0.06300
H3520       H  0.62276027  0.21943559  0.40035825     0.07100
C3521       C  0.56474887  0.20306471  0.62918970    -0.22500
C3522       C  0.56696859  0.18591781  0.64869264     0.09500
C3523       C  0.58446747  0.17855063  0.65254664     0.09900
C3524       C  0.59923037  0.18811357  0.63487278    -0.17400
C3525       C  0.59694450  0.20481928  0.61305539    -0.27800
C3526       C  0.57953318  0.21269084  0.61155525     0.18200
C3527       C  0.55076737  0.17542229  0.66249905     0.12200
C3528       C  0.58758649  0.16056695  0.67521784    -0.12200
H3529       H  0.61257308  0.18216715  0.63661263     0.12500
C3530       C  0.57646945  0.23133259  0.59235396    -0.23000
H3531       H  0.55131303  0.20873626  0.62677345     0.08100
C3532       C  0.54040475  0.18002859  0.70081225     0.04500
C3533       C  0.52547706  0.16928819  0.71261588    -0.20200
C3534       C  0.52091924  0.15382288  0.68762140    -0.12500
C3535       C  0.53123099  0.14933342  0.64897901     0.13200
C3536       C  0.54586696  0.16033697  0.63666220    -0.23000
C3537       C  0.54536895  0.19593059  0.72994068    -0.06000
H3538       H  0.51758605  0.17271401  0.74222120     0.14700
C3539       C  0.52665057  0.13327525  0.61987458    -0.16200
H3540       H  0.55372523  0.15705243  0.60689109     0.09000
H3541       H  0.58540832  0.24119151  0.60960308     0.06900
H3542       H  0.56231656  0.23583934  0.59717927     0.08100
H3543       H  0.57924495  0.23147467  0.55552902     0.07100
H3544       H  0.58066174  0.14967655  0.65626996     0.02000
H3545       H  0.58230259  0.16096722  0.71031728     0.02500
H3546       H  0.60215044  0.15712852  0.67676655     0.06000
H3547       H  0.53615994  0.19727760  0.75935828     0.05000
H3548       H  0.54457256  0.20860310  0.70995378    -0.00800
H3549       H  0.55930895  0.19421892  0.74293919     0.00700
H3550       H  0.53555092  0.13241701  0.58975184     0.04300
H3551       H  0.51251552  0.13435901  0.60782165     0.06300
H3552       H  0.52836615  0.12057828  0.63939740     0.07100
C3553       C  0.60654514  0.31300695  0.62093118    -0.22500
C3554       C  0.58915368  0.31441630  0.60288735     0.09500
C3555       C  0.58306780  0.30155127  0.57139971     0.09900
C3556       C  0.59443285  0.28718088  0.55951450    -0.17400
C3557       C  0.61195473  0.28568293  0.57738783    -0.27800
C3558       C  0.61813660  0.29891066  0.60832834     0.18200
C3559       C  0.57761056  0.32951333  0.61799281     0.12200
C3560       C  0.56472402  0.30316230  0.54990581    -0.12200
H3561       H  0.58969993  0.27721294  0.53549402     0.12500
C3562       C  0.63669819  0.29817148  0.62904311    -0.23000
H3563       H  0.61104374  0.32304927  0.64504116     0.08100
C3564       C  0.56596707  0.32760297  0.65534092     0.04500
C3565       C  0.55658314  0.34274386  0.67119991    -0.20200
C3566       C  0.55878365  0.35983435  0.65102962    -0.12500
C3567       C  0.56968566  0.36144437  0.61182550     0.13200
C3568       C  0.57917789  0.34627866  0.59630238    -0.23000
C3569       C  0.56405990  0.30978259  0.67965893    -0.06000
H3570       H  0.54825557  0.34139513  0.70114024     0.14700
C3571       C  0.57140904  0.37869014  0.58492636    -0.16200
H3572       H  0.58797221  0.34755094  0.56715407     0.09000
H3573       H  0.63872677  0.30903601  0.65436356     0.06900
H3574       H  0.64709914  0.29996277  0.60243824     0.08100
H3575       H  0.63872462  0.28503836  0.64639880     0.07100
H3576       H  0.56377695  0.31615791  0.53123884     0.02000
H3577       H  0.55406645  0.30274105  0.57619344     0.02500
H3578       H  0.56213590  0.29202265  0.52567561     0.06000
H3579       H  0.55452657  0.31070092  0.70852569     0.05000
H3580       H  0.57736955  0.30545519  0.69298770    -0.00800
H3581       H  0.55892779  0.29933110  0.65614577     0.00700
H3582       H  0.58538524  0.38395960  0.58767453     0.04300
H3583       H  0.56181754  0.38928617  0.59562396     0.06300
H3584       H  0.56843855  0.37590268  0.54882462     0.07100
C3585       C  0.83403332  0.25733563  0.15261473    -0.22500
C3586       C  0.84444866  0.26358393  0.18875936     0.09500
C3587       C  0.85744943  0.27714028  0.18147307     0.09900
C3588       C  0.85995769  0.28401978  0.13781959    -0.17400
C3589       C  0.84987453  0.27760831  0.10078861    -0.27800
C3590       C  0.83653875  0.26412365  0.10860266     0.18200
C3591       C  0.84228921  0.25526693  0.23389356     0.12200
C3592       C  0.86876894  0.28426708  0.21986467    -0.12200
H3593       H  0.87012250  0.29435152  0.13270685     0.12500
C3594       C  0.82488869  0.25666319  0.07129308    -0.23000
H3595       H  0.82407752  0.24689537  0.15887778     0.08100
C3596       C  0.82985759  0.26202070  0.26557095     0.04500
C3597       C  0.83001799  0.25521038  0.30983956    -0.20200
C3598       C  0.84255219  0.24199005  0.32344400    -0.12500
C3599       C  0.85470628  0.23486380  0.29081448     0.13200
C3600       C  0.85421166  0.24151486  0.24640466    -0.23000
C3601       C  0.81684168  0.27680351  0.25295271    -0.06000
H3602       H  0.82061612  0.26067748  0.33429219     0.14700
C3603       C  0.86888853  0.22098130  0.30240072    -0.16200
H3604       H  0.86375343  0.23654845  0.22158883     0.09000
H3605       H  0.81721685  0.26775363  0.05489187     0.06900
H3606       H  0.81495064  0.24667318  0.08420773     0.08100
H3607       H  0.83340481  0.24966448  0.04593593     0.07100
H3608       H  0.87683392  0.27314332  0.23489038     0.02000
H3609       H  0.85991041  0.29011805  0.24629699     0.02500
H3610       H  0.87824721  0.29496457  0.20841021     0.06000
H3611       H  0.80808029  0.28063134  0.28183770     0.05000
H3612       H  0.80806543  0.27218441  0.22487677    -0.00800
H3613       H  0.82439332  0.28900432  0.24196950     0.00700
H3614       H  0.86237933  0.20828764  0.31403200     0.04300
H3615       H  0.87796206  0.22630117  0.32910207     0.06300
H3616       H  0.87741576  0.21754858  0.27276842     0.07100
C3617       C  0.84818360  0.26100762  0.68601871    -0.22500
C3618       C  0.84201763  0.27886588  0.68779304     0.09500
C3619       C  0.83859240  0.28831978  0.64733536     0.09900
C3620       C  0.84202367  0.27985568  0.60581596    -0.17400
C3621       C  0.84884505  0.26211642  0.60368886    -0.27800
C3622       C  0.85153682  0.25241127  0.64463442     0.18200
C3623       C  0.84049770  0.28761721  0.73260434     0.12200
C3624       C  0.83124962  0.30728633  0.64803377    -0.12200
H3625       H  0.83970063  0.28734214  0.57483362     0.12500
C3626       C  0.85768433  0.23298003  0.64550696    -0.23000
H3627       H  0.85070863  0.25386537  0.71744183     0.08100
C3628       C  0.82676095  0.28295079  0.76341611     0.04500
C3629       C  0.82750601  0.28962589  0.80773185    -0.20200
C3630       C  0.84162817  0.30097355  0.82194480    -0.12500
C3631       C  0.85482989  0.30648526  0.78991788     0.13200
C3632       C  0.85408645  0.29962882  0.74578263    -0.23000
C3633       C  0.81140077  0.27085219  0.74956059    -0.06000
H3634       H  0.81719991  0.28559872  0.83171654     0.14700
C3635       C  0.87026348  0.31884193  0.80204899    -0.16200
H3636       H  0.86455392  0.30312764  0.72172253     0.09000
H3637       H  0.84843346  0.22454741  0.62490314     0.06900
H3638       H  0.85774661  0.22735776  0.68035477     0.08100
H3639       H  0.87164774  0.23190308  0.63231337     0.07100
H3640       H  0.84089721  0.31644018  0.66521606     0.02000
H3641       H  0.81819019  0.30747526  0.66640337     0.02500
H3642       H  0.82893116  0.31258607  0.61336725     0.06000
H3643       H  0.80155151  0.26891620  0.77745079     0.05000
H3644       H  0.81660242  0.25737126  0.73974917    -0.00800
H3645       H  0.80418745  0.27695874  0.72041013     0.00700
H3646       H  0.87837662  0.31276225  0.82970955     0.04300
H3647       H  0.86496984  0.33219619  0.81269072     0.06300
H3648       H  0.87944056  0.32121713  0.77295365     0.07100
C3649       C  0.76670581  0.21258011  0.46097824    -0.22500
C3650       C  0.76046834  0.21707371  0.50426313     0.09500
C3651       C  0.77283468  0.22307704  0.53719999     0.09900
C3652       C  0.79109783  0.22482326  0.52575992    -0.17400
C3653       C  0.79728333  0.22117428  0.48184359    -0.27800
C3654       C  0.78486318  0.21505045  0.44882341     0.18200
C3655       C  0.74076146  0.21787258  0.51271586     0.12200
C3656       C  0.76665344  0.22847965  0.58378710    -0.12200
H3657       H  0.80055987  0.22963976  0.55093753     0.12500
C3658       C  0.78971318  0.21239760  0.39976031    -0.23000
H3659       H  0.75708995  0.20826199  0.43561062     0.08100
C3660       C  0.73037109  0.23227392  0.49534859     0.04500
C3661       C  0.71227986  0.23390713  0.50821149    -0.20200
C3662       C  0.70427197  0.22158007  0.53820955    -0.12500
C3663       C  0.71459160  0.20697576  0.55523293     0.13200
C3664       C  0.73268643  0.20519946  0.54171805    -0.23000
C3665       C  0.73849784  0.24630949  0.46442588    -0.06000
H3666       H  0.70434088  0.24505718  0.49515323     0.14700
C3667       C  0.70745872  0.19368782  0.58956509    -0.16200
H3668       H  0.74077586  0.19427323  0.55535555     0.09000
H3669       H  0.78073212  0.22085529  0.37839484     0.06900
H3670       H  0.78775786  0.19800959  0.39048638     0.08100
H3671       H  0.80369193  0.21634371  0.39131848     0.07100
H3672       H  0.76046912  0.21671817  0.60121066     0.02000
H3673       H  0.75657888  0.23952748  0.58120797     0.02500
H3674       H  0.77802317  0.23336078  0.60492162     0.06000
H3675       H  0.72858342  0.25693307  0.45516768     0.05000
H3676       H  0.74318788  0.23986945  0.43271501    -0.00800
H3677       H  0.75007996  0.25295204  0.48140277     0.00700
H3678       H  0.70757834  0.17989061  0.57495210     0.04300
H3679       H  0.69360522  0.19674365  0.60108966     0.06300
H3680       H  0.71624675  0.19385097  0.61994562     0.07100
C3681       C  0.89257996  0.16094075  0.68994705    -0.22500
C3682       C  0.88776408  0.14881167  0.65581800     0.09500
C3683       C  0.89538021  0.13131768  0.65537351     0.09900
C3684       C  0.90891721  0.12696480  0.68685074    -0.17400
C3685       C  0.91500429  0.13989462  0.71787772    -0.27800
C3686       C  0.90605138  0.15670237  0.72109778     0.18200
C3687       C  0.87874533  0.15665955  0.61585367     0.12200
C3688       C  0.88951493  0.11751976  0.62108260    -0.12200
H3689       H  0.91545009  0.11387544  0.68554967     0.12500
C3690       C  0.91066045  0.17029704  0.75718382    -0.23000
H3691       H  0.88674275  0.17437570  0.69008214     0.08100
C3692       C  0.86157167  0.16487231  0.61851448     0.04500
C3693       C  0.85656196  0.17759536  0.58546704    -0.20200
C3694       C  0.86852678  0.18221749  0.55062423    -0.12500
C3695       C  0.88484322  0.17261945  0.54551798     0.13200
C3696       C  0.88973395  0.15993650  0.57822067    -0.23000
C3697       C  0.84887090  0.16060517  0.65680579    -0.06000
H3698       H  0.84389854  0.18479096  0.58853188     0.14700
C3699       C  0.89741677  0.17608266  0.50631221    -0.16200
H3700       H  0.90294640  0.15371017  0.57645380     0.09000
H3701       H  0.90165741  0.18227437  0.75589382     0.06900
H3702       H  0.92468980  0.17521562  0.75303123     0.08100
H3703       H  0.90902859  0.16391569  0.79087293     0.07100
H3704       H  0.89261316  0.12227306  0.58636738     0.02000
H3705       H  0.87476641  0.11522728  0.62415116     0.02500
H3706       H  0.89646196  0.10438924  0.62626820     0.06000
H3707       H  0.83586050  0.16788410  0.65308044     0.05000
H3708       H  0.85489505  0.16458025  0.68960000    -0.00800
H3709       H  0.84601840  0.14587930  0.65730600     0.00700
H3710       H  0.90275792  0.19006585  0.50763417     0.04300
H3711       H  0.89007473  0.17402953  0.47404920     0.06300
H3712       H  0.90914921  0.16676304  0.50668140     0.07100
C3713       C  0.94020954  0.20545419  0.39560719    -0.22500
C3714       C  0.93844082  0.18862947  0.37468137     0.09500
C3715       C  0.92115779  0.18108351  0.36886489     0.09900
C3716       C  0.90604858  0.19015460  0.38614586    -0.17400
C3717       C  0.90771063  0.20670458  0.40923665    -0.27800
C3718       C  0.92514017  0.21469868  0.41275465     0.18200
C3719       C  0.95495583  0.17868011  0.36131380     0.12200
C3720       C  0.91868843  0.16342456  0.34441890    -0.12200
H3721       H  0.89288218  0.18398827  0.38235302     0.12500
C3722       C  0.92829693  0.23276821  0.43487141    -0.23000
H3723       H  0.95358201  0.21117777  0.39943815     0.08100
C3724       C  0.96455005  0.18293826  0.32160554     0.04500
C3725       C  0.97986220  0.17276655  0.31016592    -0.20200
C3726       C  0.98583933  0.15831167  0.33741623    -0.12500
C3727       C  0.97634850  0.15442887  0.37810654     0.13200
C3728       C  0.96107060  0.16470048  0.38932680    -0.23000
C3729       C  0.95841371  0.19798719  0.29090643    -0.06000
H3730       H  0.98697812  0.17595580  0.27917201     0.14700
C3731       C  0.98216449  0.13974090  0.41045887    -0.16200
H3732       H  0.95368602  0.16173971  0.42011675     0.09000
H3733       H  0.92017458  0.24333118  0.41761765     0.06900
H3734       H  0.94265716  0.23697514  0.43285073     0.08100
H3735       H  0.92468591  0.23206120  0.47123861     0.07100
H3736       H  0.92595407  0.15248440  0.36251525     0.02000
H3737       H  0.92410266  0.16461997  0.30953847     0.02500
H3738       H  0.90425070  0.15953723  0.34212867     0.06000
H3739       H  0.96729432  0.19940014  0.26086315     0.05000
H3740       H  0.95858421  0.21099762  0.30946439    -0.00800
H3741       H  0.94449848  0.19522017  0.27892954     0.00700
H3742       H  0.99634317  0.14201004  0.42112339     0.04300
H3743       H  0.98083742  0.12630781  0.39422795     0.06300
H3744       H  0.97371155  0.13947737  0.44146069     0.07100
C3745       C  0.89937137  0.30587081  0.38523206    -0.22500
C3746       C  0.90667994  0.31702522  0.41874593     0.09500
C3747       C  0.90461663  0.31238487  0.46466263     0.09900
C3748       C  0.89500337  0.29670031  0.47613795    -0.17400
C3749       C  0.88745365  0.28560899  0.44264107    -0.27800
C3750       C  0.89004960  0.29000895  0.39646915     0.18200
C3751       C  0.91669349  0.33335190  0.40455246     0.12200
C3752       C  0.91259624  0.32395934  0.50136237    -0.12200
H3753       H  0.89310433  0.29323433  0.51143623     0.12500
C3754       C  0.88398086  0.27801907  0.35813502    -0.23000
H3755       H  0.90129795  0.30939628  0.34996313     0.08100
C3756       C  0.93468705  0.33229498  0.38974253     0.04500
C3757       C  0.94311667  0.34780878  0.37257776    -0.20200
C3758       C  0.93402656  0.36450189  0.36992455    -0.12500
C3759       C  0.91612714  0.36561387  0.38710702     0.13200
C3760       C  0.90772730  0.34995985  0.40391545    -0.23000
C3761       C  0.94494951  0.31474745  0.39191539    -0.06000
H3762       H  0.95683999  0.34671003  0.36041128     0.14700
C3763       C  0.90549778  0.38296227  0.38741106    -0.16200
H3764       H  0.89391971  0.35055268  0.41586563     0.09000
H3765       H  0.89569331  0.27491267  0.33608183     0.06900
H3766       H  0.87361132  0.28512540  0.33770706     0.08100
H3767       H  0.87842761  0.26487896  0.36942548     0.07100
H3768       H  0.90672829  0.33773781  0.49974066     0.02000
H3769       H  0.92743485  0.32486866  0.49687118     0.02500
H3770       H  0.90985652  0.31830892  0.53549353     0.06000
H3771       H  0.95899626  0.31629761  0.37943819     0.05000
H3772       H  0.93814180  0.30441087  0.37082926    -0.00800
H3773       H  0.94552268  0.30990521  0.42743454     0.00700
H3774       H  0.90346790  0.38780483  0.35231450     0.04300
H3775       H  0.91272634  0.39332846  0.40753110     0.06300
H3776       H  0.89193909  0.38115988  0.40274548     0.07100
loop_ 
_geom_bond_atom_site_label_1 
_geom_bond_atom_site_label_2 
_geom_bond_distance 
_geom_bond_site_symmetry_2 
_ccdc_geom_bond_type 
O1           C16   1.268       .  A
O1           Al9   1.933       .  S
C2           O12   1.266       .  A
C2            O3   1.260       .  A
C2         C3621   1.489       .  S
O3           Al5   1.888       .  S
O4            C6   1.261       .  A
O4           Al5   1.903       .  S
Al5          O13   1.916       .  S
Al5          O15   1.890       .  S
Al5          O14   1.777       .  S
C6           O19   1.259       .  A
C6         C3694   1.465       .  S
O7           C17   1.265       .  A
O7           Al9   1.929       .  S
O8           C21   1.265       .  A
O8          Al18   1.920       .  S
Al9          O22   1.879       .  S
Al9          O19   1.899       .  S
Al9          O14   1.784       .  S
O10          C17   1.258       .  A
O10         Al18   1.879       .  S
O11          C20   1.257       .  A
O11         Al18   1.886       .  S
O12         Al18   1.925       .  S
O13          C20   1.261       .  A
O14         Al18   1.779       .  S
O15          C16   1.259       .  A
C16        C3717   1.496       .  S
C17        C3653   1.478       .  S
C20        C3749   1.473       .  S
C21          O22   1.256       .  A
C21        C3598   1.487       .  S
O23          C38   1.261       .  A
O23         Al31   1.899       .  S
C24          O34   1.258       .  A
C24          O25   1.264       .  A
C24        C3429   1.464       .  S
O25         Al27   1.920       .  S
O26          C28   1.257       .  A
O26         Al27   1.881       .  S
Al27         O35   1.886       .  S
Al27         O37   1.916       .  S
Al27         O36   1.776       .  S
C28          O41   1.265       .  A
C28        C3502   1.489       .  S
O29          C39   1.260       .  A
O29         Al31   1.898       .  S
O30          C43   1.257       .  A
O30         Al40   1.868       .  S
Al31         O44   1.933       .  S
Al31         O41   1.926       .  S
Al31         O36   1.787       .  S
O32          C39   1.262       .  A
O32         Al40   1.911       .  S
O33          C42   1.262       .  A
O33         Al40   1.923       .  S
O34         Al40   1.885       .  S
O35          C42   1.258       .  A
O36         Al40   1.781       .  S
O37          C38   1.263       .  A
C38        C3525   1.483       .  S
C39        C3662   1.475       .  S
C42        C3557   1.483       .  S
C43          O44   1.265       .  A
C43        C3461   1.463       .  S
O45          C60   1.259       .  A
O45         Al53   1.882       .  S
C46          O56   1.257       .  A
C46          O47   1.264       .  A
C46        C3630   1.487       .  S
O47         Al49   1.919       .  S
O48          C50   1.258       .  A
O48         Al49   1.891       .  S
Al49         O57   1.874       .  S
Al49         O59   1.930   1_556  S
Al49         O58   1.779       .  S
C50          O63   1.263       .  A
C50        C3333   1.485       .  S
O51          C61   1.258       .  A
O51         Al53   1.877   1_556  S
O52          C65   1.259   1_556  A
O52         Al62   1.900       .  S
Al53         O66   1.897       .  S
Al53         O63   1.922   1_554  S
Al53         O58   1.775   1_554  S
O54          C61   1.269       .  A
O54         Al62   1.941       .  S
O55          C64   1.269       .  A
O55         Al62   1.946       .  S
O56         Al62   1.884       .  S
O57          C64   1.258       .  A
O58         Al62   1.788       .  S
O59          C60   1.264       .  A
C60        C3589   1.492       .  S
C61        C3397   1.482       .  S
C64        C3301   1.482       .  S
C65          O66   1.261       .  A
C65        C3365   1.471       .  S
O67          C82   1.262       .  A
O67         Al75   1.894   1_556  S
C68          O78   1.256       .  A
C68          O69   1.261       .  A
C68        C3438   1.457       .  S
O69         Al71   1.909       .  S
O70          C72   1.260       .  A
O70         Al71   1.898       .  S
Al71         O79   1.882       .  S
Al71         O81   1.910       .  S
Al71         O80   1.783       .  S
C72          O85   1.259       .  A
C72        C3205   1.497       .  S
O73          C83   1.263       .  A
O73         Al75   1.901       .  S
O74          C87   1.259   1_554  A
O74         Al84   1.901       .  S
Al75         O88   1.897   1_554  S
Al75         O85   1.914       .  S
Al75         O80   1.780       .  S
O76          C83   1.269       .  A
O76         Al84   1.935       .  S
O77          C86   1.265       .  A
O77         Al84   1.934       .  S
O78         Al84   1.875       .  S
O79          C86   1.258       .  A
O80         Al84   1.788       .  S
O81          C82   1.263   1_554  A
C82        C3470   1.472       .  S
C83        C3269   1.499       .  S
C86        C3310   1.497       .  S
C87          O88   1.259       .  A
C87        C3237   1.463       .  S
O89         C104   1.258       .  A
O89         Al97   1.882       .  S
C90         O100   1.257       .  A
C90          O91   1.264       .  A
C90        C3109   1.476       .  S
O91         Al93   1.918       .  S
O92          C94   1.260       .  A
O92         Al93   1.898       .  S
Al93        O101   1.880       .  S
Al93        O103   1.917       .  S
Al93        O102   1.777       .  S
C94         O107   1.258       .  A
C94        C3077   1.483       .  S
O95         C105   1.262       .  A
O95         Al97   1.890       .  S
O96         C109   1.258       .  A
O96        Al106   1.891       .  S
Al97        O110   1.893       .  S
Al97        O107   1.906       .  S
Al97        O102   1.776       .  S
O98         C105   1.267       .  A
O98        Al106   1.928       .  S
O99         C108   1.264       .  A
O99        Al106   1.930       .  S
O100       Al106   1.876       .  S
O101        C108   1.259       .  A
O102       Al106   1.785       .  S
O103        C104   1.265       .  A
C104       C3141   1.478       .  S
C105       C3566   1.481       .  S
C108       C3173   1.493       .  S
C109        O110   1.261       .  A
C109       C3246   1.467       .  S
O111        C126   1.262       .  A
O111       Al119   1.884       .  S
C112        O122   1.258       .  A
C112        O113   1.262       .  A
C112       C3013   1.469       .  S
O113       Al115   1.907       .  S
O114        C116   1.258       .  A
O114       Al115   1.904       .  S
Al115       O123   1.879       .  S
Al115       O125   1.912       .  S
Al115       O124   1.782       .  S
C116        O129   1.257       .  A
C116       C2981   1.480       .  S
O117        C127   1.263       .  A
O117       Al119   1.889       .  S
O118        C131   1.261       .  A
O118       Al128   1.916       .  S
Al119       O132   1.899       .  S
Al119       O129   1.909       .  S
Al119       O124   1.780       .  S
O120        C127   1.268       .  A
O120       Al128   1.928       .  S
O121        C130   1.261       .  A
O121       Al128   1.923       .  S
O122       Al128   1.876       .  S
O123        C130   1.256       .  A
O124       Al128   1.789       .  S
O125        C126   1.265       .  A
C126       C3045   1.466       .  S
C127       C2917   1.478       .  S
C130       C3182   1.475       .  S
C131        O132   1.258       .  A
C131       C2958   1.473       .  S
O133        C148   1.265       .  A
O133       Al141   1.932       .  S
C134        O144   1.264       .  A
C134        O135   1.255       .  A
C134       C3118   1.473       .  S
O135       Al137   1.867       .  S
O136        C138   1.265       .  A
O136       Al137   1.913       .  S
Al137       O145   1.921       .  S
Al137       O147   1.884       .  S
Al137       O146   1.775       .  S
C138        O151   1.260       .  A
C138       C2853   1.468       .  S
O139        C149   1.265       .  A
O139       Al141   1.936       .  S
O140        C153   1.263       .  A
O140       Al150   1.917       .  S
Al141       O154   1.873       .  S
Al141       O151   1.897       .  S
Al141       O146   1.792       .  S
O142        C149   1.255       .  A
O142       Al150   1.876       .  S
O143        C152   1.259       .  A
O143       Al150   1.901       .  S
O144       Al150   1.921       .  S
O145        C152   1.262       .  A
O146       Al150   1.785       .  S
O147        C148   1.258       .  A
C148       C2821   1.479       .  S
C149       C2894   1.482       .  S
C152       C3278   1.493       .  S
C153        O154   1.258       .  A
C153       C3150   1.466       .  S
O155        C170   1.260       .  A
O155       Al163   1.897       .  S
C156        O166   1.258       .  A
C156        O157   1.262       .  A
C156       C3022   1.463       .  S
O157       Al159   1.910       .  S
O158        C160   1.259       .  A
O158       Al159   1.873       .  S
Al159       O167   1.887       .  S
Al159       O169   1.914       .  S
Al159       O168   1.771       .  S
C160        O173   1.265       .  A
C160       C2798   1.488       .  S
O161        C171   1.257       .  A
O161       Al163   1.886       .  S
O162        C175   1.256       .  A
O162       Al172   1.861       .  S
Al163       O176   1.932       .  S
Al163       O173   1.931       .  S
Al163       O168   1.785       .  S
O164        C171   1.264       .  A
O164       Al172   1.923       .  S
O165        C174   1.266       .  A
O165       Al172   1.936       .  S
O166       Al172   1.887       .  S
O167        C174   1.258       .  A
O168       Al172   1.781       .  S
O169        C170   1.261       .  A
C170       C2766   1.476       .  S
C171       C2885   1.474       .  S
C174       C2725   1.477       .  S
C175        O176   1.266       .  A
C175       C3054   1.460       .  S
O177        C192   1.261       .  A
O177       Al185   1.916       .  S
C178        O188   1.259       .  A
C178        O179   1.262       .  A
C178       C2670   1.483       .  S
O179       Al181   1.910       .  S
O180        C182   1.261       .  A
O180       Al181   1.886       .  S
Al181       O189   1.897   1_554  S
Al181       O191   1.897   1_554  S
Al181       O190   1.780   1_554  S
C182        O195   1.266       .  A
C182       C2789   1.485       .  S
O183        C193   1.260       .  A
O183       Al185   1.907       .  S
O184        C197   1.258       .  A
O184       Al194   1.875       .  S
Al185       O198   1.910       .  S
Al185       O195   1.917   1_556  S
Al185       O190   1.790       .  S
O186        C193   1.259       .  A
O186       Al194   1.904       .  S
O187        C196   1.264       .  A
O187       Al194   1.924       .  S
O188       Al194   1.895   1_554  S
O189        C196   1.260       .  A
O190       Al194   1.785       .  S
O191        C192   1.256       .  A
C192       C2990   1.485       .  S
C193       C2693   1.479       .  S
C196       C2597   1.481       .  S
C197        O198   1.263       .  A
C197       C2629   1.473       .  S
O199        C214   1.262       .  A
O199       Al207   1.907       .  S
C200        O210   1.258   1_556  A
C200        O201   1.263       .  A
C200       C2542   1.473       .  S
O201       Al203   1.917   1_556  S
O202        C204   1.260   1_556  A
O202       Al203   1.876   1_556  S
Al203       O211   1.890       .  S
Al203       O213   1.906       .  S
Al203       O212   1.779       .  S
C204        O217   1.261       .  A
C204       C2469   1.486   1_554  S
O205        C215   1.260       .  A
O205       Al207   1.905       .  S
O206        C219   1.258       .  A
O206       Al216   1.875       .  S
Al207       O220   1.917       .  S
Al207       O217   1.914       .  S
Al207       O212   1.791       .  S
O208        C215   1.260       .  A
O208       Al216   1.907       .  S
O209        C218   1.261       .  A
O209       Al216   1.918       .  S
O210       Al216   1.888       .  S
O211        C218   1.259       .  A
O212       Al216   1.785       .  S
O213        C214   1.260       .  A
C214       C2501   1.483       .  S
C215       C2702   1.477       .  S
C218       C2446   1.484       .  S
C219        O220   1.264       .  A
C219       C2574   1.473       .  S
O221        C236   1.253       .  A
O221       Al229   1.867       .  S
C222        O232   1.261       .  A
C222        O223   1.261       .  A
C222       C2661   1.489       .  S
O223       Al225   1.911       .  S
O224        C226   1.260       .  A
O224       Al225   1.891       .  S
Al225       O233   1.884       .  S
Al225       O235   1.920       .  S
Al225       O234   1.782       .  S
C226        O239   1.264       .  A
C226       C2757   1.479       .  S
O227        C237   1.255       .  A
O227       Al229   1.878       .  S
O228        C241   1.260       .  A
O228       Al238   1.898       .  S
Al229       O242   1.910       .  S
Al229       O239   1.917       .  S
Al229       O234   1.775       .  S
O230        C237   1.263       .  A
O230       Al238   1.924       .  S
O231        C240   1.266       .  A
O231       Al238   1.928       .  S
O232       Al238   1.892       .  S
O233        C240   1.259       .  A
O234       Al238   1.787       .  S
O235        C236   1.262       .  A
C236       C2638   1.474       .  S
C237       C2382   1.471       .  S
C240       C2405   1.485       .  S
C241        O242   1.264       .  A
C241       C2350   1.470       .  S
O243        C258   1.255       .  A
O243       Al251   1.866       .  S
C244        O254   1.262       .  A
C244        O245   1.262       .  A
C244       C2533   1.481       .  S
O245       Al247   1.912       .  S
O246        C248   1.258       .  A
O246       Al247   1.898       .  S
Al247       O255   1.879       .  S
Al247       O257   1.926       .  S
Al247       O256   1.782       .  S
C248        O261   1.261       .  A
C248       C2318   1.482       .  S
O249        C259   1.261       .  A
O249       Al251   1.885       .  S
O250        C263   1.263       .  A
O250       Al260   1.915       .  S
Al251       O264   1.906       .  S
Al251       O261   1.918       .  S
Al251       O256   1.775       .  S
O252        C259   1.266       .  A
O252       Al260   1.931       .  S
O253        C262   1.265       .  A
O253       Al260   1.932       .  S
O254       Al260   1.897       .  S
O255        C262   1.258       .  A
O256       Al260   1.783       .  S
O257        C258   1.265       .  A
C258       C2565   1.475       .  S
C259       C2277   1.493       .  S
C262       C2414   1.493       .  S
C263        O264   1.262       .  A
C263       C2254   1.476       .  S
O265        C280   1.260       .  A
O265       Al273   1.902       .  S
C266        O276   1.262       .  A
C266        O267   1.263       .  A
C266       C2126   1.479       .  S
O267       Al269   1.910       .  S
O268        C270   1.260       .  A
O268       Al269   1.881       .  S
Al269       O277   1.894       .  S
Al269       O279   1.902       .  S
Al269       O278   1.780       .  S
C270        O283   1.263       .  A
C270       C2213   1.494       .  S
O271        C281   1.261       .  A
O271       Al273   1.910       .  S
O272        C285   1.259       .  A
O272       Al282   1.879       .  S
Al273       O286   1.927       .  S
Al273       O283   1.923       .  S
Al273       O278   1.791       .  S
O274        C281   1.260       .  A
O274       Al282   1.910       .  S
O275        C284   1.262       .  A
O275       Al282   1.914       .  S
O276       Al282   1.900       .  S
O277        C284   1.257       .  A
O278       Al282   1.786       .  S
O279        C280   1.259       .  A
C280       C2181   1.480       .  S
C281       C2158   1.486       .  S
C284       C3406   1.483   1_455  S
C285        O286   1.266       .  A
C285       C2085   1.478       .  S
O287        C302   1.260       .  A
O287       Al295   1.905       .  S
C288        O298   1.263       .  A
C288        O289   1.263       .  A
C288       C2062   1.485       .  S
O289       Al291   1.910       .  S
O290        C292   1.256       .  A
O290       Al291   1.870       .  S
Al291       O299   1.898       .  S
Al291       O301   1.899       .  S
Al291       O300   1.777       .  S
C292        O305   1.265       .  A
C292       C2478   1.483       .  S
O293        C303   1.258       .  A
O293       Al295   1.907       .  S
O294        C307   1.259       .  A
O294       Al304   1.865       .  S
Al295       O308   1.931       .  S
Al295       O305   1.919       .  S
Al295       O300   1.786       .  S
O296        C303   1.259       .  A
O296       Al304   1.908       .  S
O297        C306   1.262       .  A
O297       Al304   1.913       .  S
O298       Al304   1.893       .  S
O299        C306   1.258       .  A
O300       Al304   1.782       .  S
O301        C302   1.258       .  A
C302       C2309   1.476       .  S
C303       C2149   1.489       .  S
C306       C1998   1.487   1_455  S
C307        O308   1.268       .  A
C307       C2030   1.466       .  S
O309        C324   1.258       .  A
O309       Al317   1.881       .  S
C310        O320   1.258       .  A
C310        O311   1.267       .  A
C310       C2117   1.486       .  S
O311       Al313   1.923       .  S
O312        C314   1.257   1_655  A
O312       Al313   1.881       .  S
Al313       O321   1.876       .  S
Al313       O323   1.926       .  S
Al313       O322   1.776       .  S
C314        O327   1.262   1_455  A
C314       C1966   1.478       .  S
O315        C325   1.260       .  A
O315       Al317   1.890       .  S
O316        C329   1.261       .  A
O316       Al326   1.896       .  S
Al317       O330   1.913       .  S
Al317       O327   1.921       .  S
Al317       O322   1.778       .  S
O318        C325   1.263       .  A
O318       Al326   1.925       .  S
O319        C328   1.262       .  A
O319       Al326   1.928       .  S
O320       Al326   1.881       .  S
O321        C328   1.257       .  A
O322       Al326   1.786       .  S
O323        C324   1.265       .  A
C324       C2094   1.480       .  S
C325       C3758   1.494       .  S
C328       C1934   1.492       .  S
C329        O330   1.265       .  A
C329       C3374   1.469       .  S
O331        C346   1.256       .  A
O331       Al339   1.876       .  S
C332        O342   1.259       .  A
C332        O333   1.260       .  A
C332       C2053   1.478       .  S
O333       Al335   1.901       .  S
O334        C336   1.260       .  A
O334       Al335   1.897   1_455  S
Al335       O343   1.873       .  S
Al335       O345   1.912   1_655  S
Al335       O344   1.784       .  S
C336        O349   1.264       .  A
C336       C2510   1.490       .  S
O337        C347   1.258       .  A
O337       Al339   1.883       .  S
O338        C351   1.260       .  A
O338       Al348   1.904       .  S
Al339       O352   1.911       .  S
Al339       O349   1.921   1_655  S
Al339       O344   1.776       .  S
O340        C347   1.268       .  A
O340       Al348   1.935       .  S
O341        C350   1.268       .  A
O341       Al348   1.935       .  S
O342       Al348   1.891       .  S
O343        C350   1.257       .  A
O344       Al348   1.788       .  S
O345        C346   1.260   1_455  A
C346       C2021   1.458   1_655  S
C347       C1870   1.488       .  S
C350       C1925   1.483       .  S
C351        O352   1.262       .  A
C351       C1893   1.476       .  S
O353        C368   1.259       .  A
O353       Al361   1.902       .  S
C354        O364   1.262       .  A
C354        O355   1.260       .  A
C354       C1797   1.490       .  S
O355       Al357   1.910       .  S
O356        C358   1.262       .  A
O356       Al357   1.884       .  S
Al357       O365   1.890       .  S
Al357       O367   1.914       .  S
Al357       O366   1.775       .  S
C358        O371   1.265       .  A
C358       C3493   1.491       .  S
O359        C369   1.258       .  A
O359       Al361   1.893       .  S
O360        C373   1.260       .  A
O360       Al370   1.870       .  S
Al361       O374   1.922       .  S
Al361       O371   1.925       .  S
Al361       O366   1.783       .  S
O362        C369   1.262       .  A
O362       Al370   1.910       .  S
O363        C372   1.266       .  A
O363       Al370   1.931       .  S
O364       Al370   1.904       .  S
O365        C372   1.260       .  A
O366       Al370   1.782       .  S
O367        C368   1.262       .  A
C368       C3214   1.497       .  S
C369       C1829   1.487       .  S
C372       C1733   1.484       .  S
C373        O374   1.264       .  A
C373       C1774   1.484       .  S
O375        C390   1.262       .  A
O375       Al383   1.915       .  S
C376        O386   1.261       .  A
C376        O377   1.259       .  A
C376       C1678   1.489       .  S
O377       Al379   1.903       .  S
O378        C380   1.262       .  A
O378       Al379   1.888       .  S
Al379       O387   1.898       .  S
Al379       O389   1.896       .  S
Al379       O388   1.780       .  S
C380        O393   1.266       .  A
C380       C1637   1.483       .  S
O381        C391   1.260       .  A
O381       Al383   1.903       .  S
O382        C395   1.259       .  A
O382       Al392   1.875       .  S
Al383       O396   1.922       .  S
Al383       O393   1.922       .  S
Al383       O388   1.789       .  S
O384        C391   1.257       .  A
O384       Al392   1.893       .  S
O385        C394   1.262       .  A
O385       Al392   1.913       .  S
O386       Al392   1.899       .  S
O387        C394   1.260       .  A
O388       Al392   1.788       .  S
O389        C390   1.256       .  A
C390       C1614   1.488       .  S
C391       C1838   1.477       .  S
C394       C2373   1.470       .  S
C395        O396   1.265       .  A
C395       C1710   1.474       .  S
O397        C412   1.262       .  A
O397       Al405   1.905       .  S
C398        O408   1.264       .  A
C398        O399   1.258       .  A
C398       C1806   1.484       .  S
O399       Al401   1.872       .  S
O400        C402   1.262       .  A
O400       Al401   1.917       .  S
Al401       O409   1.910       .  S
Al401       O411   1.882       .  S
Al401       O410   1.783       .  S
C402        O415   1.259       .  A
C402       C3534   1.481       .  S
O403        C413   1.264       .  A
O403       Al405   1.906       .  S
O404        C417   1.261       .  A
O404       Al414   1.920       .  S
Al405       O418   1.897       .  S
Al405       O415   1.893       .  S
Al405       O410   1.781       .  S
O406        C413   1.265       .  A
O406       Al414   1.908       .  S
O407        C416   1.262       .  A
O407       Al414   1.907       .  S
O408       Al414   1.934       .  S
O409        C416   1.262       .  A
O410       Al414   1.788       .  S
O411        C412   1.256       .  A
C412       C1765   1.469       .  S
C413       C1509   1.483       .  S
C416       C1573   1.474       .  S
C417        O418   1.261       .  A
C417       C1541   1.496       .  S
O419        C434   1.257       .  A
O419       Al427   1.884       .  S
C420        O430   1.261       .  A
C420        O421   1.261       .  A
C420       C1669   1.483       .  S
O421       Al423   1.898       .  S
O422        C424   1.259       .  A
O422       Al423   1.895       .  S
Al423       O431   1.889       .  S
Al423       O433   1.917       .  S
Al423       O432   1.785       .  S
C424        O437   1.263       .  A
C424       C1477   1.487       .  S
O425        C435   1.260       .  A
O425       Al427   1.900       .  S
O426        C439   1.260       .  A
O426       Al436   1.896       .  S
Al427       O440   1.902       .  S
Al427       O437   1.914       .  S
Al427       O432   1.780       .  S
O428        C435   1.263       .  A
O428       Al436   1.923       .  S
O429        C438   1.263       .  A
O429       Al436   1.921       .  S
O430       Al436   1.897       .  S
O431        C438   1.260       .  A
O432       Al436   1.787       .  S
O433        C434   1.260       .  A
C434       C1701   1.464       .  S
C435       C2606   1.477       .  S
C438       C1582   1.474       .  S
C439        O440   1.262       .  A
C439       C2341   1.471       .  S
O441        C456   1.264       .  A
O441       Al449   1.912       .  S
C442        O452   1.259   1_556  A
C442        O443   1.261       .  A
C442       C1349   1.478       .  S
O443       Al445   1.895   1_556  S
O444        C446   1.260       .  A
O444       Al445   1.895   1_556  S
Al445       O453   1.889       .  S
Al445       O455   1.896       .  S
Al445       O454   1.777       .  S
C446        O459   1.265   1_556  A
C446       C1422   1.492       .  S
O447        C457   1.260       .  A
O447       Al449   1.903       .  S
O448        C461   1.259       .  A
O448       Al458   1.877       .  S
Al449       O462   1.931       .  S
Al449       O459   1.918       .  S
Al449       O454   1.782       .  S
O450        C457   1.262       .  A
O450       Al458   1.914       .  S
O451        C460   1.265       .  A
O451       Al458   1.927       .  S
O452       Al458   1.899       .  S
O453        C460   1.259       .  A
O454       Al458   1.783       .  S
O455        C456   1.258       .  A
C456       C1454   1.485       .  S
C457       C1381   1.479       .  S
C460       C1861   1.483       .  S
C461        O462   1.265       .  A
C461       C1326   1.478       .  S
O463        C478   1.260       .  A
O463       Al471   1.897       .  S
C464        O474   1.262       .  A
C464        O465   1.265       .  A
C464       C1262   1.473       .  S
O465       Al467   1.912       .  S
O466        C468   1.260       .  A
O466       Al467   1.879       .  S
Al467       O475   1.893   1_554  S
Al467       O477   1.905   1_554  S
Al467       O476   1.774   1_554  S
C468        O481   1.263       .  A
C468       C1646   1.492       .  S
O469        C479   1.261       .  A
O469       Al471   1.906       .  S
O470        C483   1.259       .  A
O470       Al480   1.869       .  S
Al471       O484   1.930       .  S
Al471       O481   1.922   1_556  S
Al471       O476   1.786       .  S
O472        C479   1.257       .  A
O472       Al480   1.901       .  S
O473        C482   1.259       .  A
O473       Al480   1.912       .  S
O474       Al480   1.895   1_554  S
O475        C482   1.259       .  A
O476       Al480   1.781       .  S
O477        C478   1.260       .  A
C478       C1486   1.475       .  S
C479       C1390   1.492       .  S
C482       C2926   1.479       .  S
C483        O484   1.267       .  A
C483       C1285   1.460       .  S
O485        C500   1.263       .  A
O485       Al493   1.910       .  S
C486        O496   1.265       .  A
C486        O487   1.260       .  A
C486       C1358   1.470       .  S
O487       Al489   1.879       .  S
O488        C490   1.263       .  A
O488       Al489   1.918       .  S
Al489       O497   1.900       .  S
Al489       O499   1.893       .  S
Al489       O498   1.781       .  S
C490        O503   1.261       .  A
C490       C1221   1.479       .  S
O491        C501   1.258       .  A
O491       Al493   1.899       .  S
O492        C505   1.267       .  A
O492       Al502   1.930       .  S
Al493       O506   1.880       .  S
Al493       O503   1.898       .  S
Al493       O498   1.778       .  S
O494        C501   1.260       .  A
O494       Al502   1.909       .  S
O495        C504   1.260       .  A
O495       Al502   1.904       .  S
O496       Al502   1.918       .  S
O497        C504   1.260       .  A
O498       Al502   1.786       .  S
O499        C500   1.259       .  A
C500       C1317   1.481       .  S
C501       C1989   1.472       .  S
C504       C1189   1.485       .  S
C505        O506   1.258       .  A
C505       C1902   1.490       .  S
O507        C522   1.258       .  A
O507       Al515   1.878       .  S
C508        O518   1.262       .  A
C508        O509   1.262       .  A
C508       C1253   1.484       .  S
O509       Al511   1.914       .  S
O510        C512   1.258       .  A
O510       Al511   1.894       .  S
Al511       O519   1.887       .  S
Al511       O521   1.911       .  S
Al511       O520   1.782       .  S
C512        O525   1.263       .  A
C512       C1605   1.486       .  S
O513        C523   1.262       .  A
O513       Al515   1.899       .  S
O514        C527   1.264       .  A
O514       Al524   1.909       .  S
Al515       O528   1.912       .  S
Al515       O525   1.922       .  S
Al515       O520   1.775       .  S
O516        C523   1.264       .  A
O516       Al524   1.916       .  S
O517        C526   1.262       .  A
O517       Al524   1.922       .  S
O518       Al524   1.885       .  S
O519        C526   1.257       .  A
O520       Al524   1.784       .  S
O521        C522   1.262       .  A
C522       C1294   1.461       .  S
C523       C2734   1.476       .  S
C526       C1198   1.475       .  S
C527        O528   1.265       .  A
C527       C2949   1.483       .  S
O529        C544   1.258       .  A
O529       Al537   1.895       .  S
C530        O540   1.257       .  A
C530        O531   1.263       .  A
C530       C1125   1.461       .  S
O531       Al533   1.917       .  S
O532        C534   1.262       .  A
O532       Al533   1.890       .  S
Al533       O541   1.906       .  S
Al533       O543   1.910       .  S
Al533       O542   1.783       .  S
C534        O547   1.262       .  A
C534       C2862   1.493       .  S
O535        C545   1.257       .  A
O535       Al537   1.893       .  S
O536        C549   1.259       .  A
O536       Al546   1.879       .  S
Al537       O550   1.914       .  S
Al537       O547   1.916       .  S
Al537       O542   1.786       .  S
O538        C545   1.260       .  A
O538       Al546   1.909       .  S
O539        C548   1.262       .  A
O539       Al546   1.919       .  S
O540       Al546   1.885       .  S
O541        C548   1.262       .  A
O542       Al546   1.785       .  S
O543        C544   1.261       .  A
C544       C3086   1.477       .  S
C545       C1157   1.472       .  S
C548       C1518   1.499       .  S
C549        O550   1.264       .  A
C549       C1102   1.472       .  S
O551        C566   1.259       .  A
O551       Al559   1.902       .  S
C552        O562   1.261       .  A
C552        O553   1.257       .  A
C552       C1029   1.481       .  S
O553       Al555   1.891       .  S
O554        C556   1.259       .  A
O554       Al555   1.879       .  S
Al555       O563   1.893       .  S
Al555       O565   1.886       .  S
Al555       O564   1.776       .  S
C556        O569   1.268       .  A
C556       C2222   1.487       .  S
O557        C567   1.257       .  A
O557       Al559   1.894       .  S
O558        C571   1.257       .  A
O558       Al568   1.873       .  S
Al559       O572   1.923       .  S
Al559       O569   1.927       .  S
Al559       O564   1.789       .  S
O560        C567   1.259       .  A
O560       Al568   1.899       .  S
O561        C570   1.262       .  A
O561       Al568   1.912       .  S
O562       Al568   1.902       .  S
O563        C570   1.260       .  A
O564       Al568   1.783       .  S
O565        C566   1.256       .  A
C566       C1957   1.477       .  S
C567       C1166   1.470       .  S
C570        C997   1.471       .  S
C571        O572   1.265       .  A
C571       C1070   1.469       .  S
O573        C588   1.253       .  A
O573       Al581   1.863   1_556  S
C574        O584   1.258       .  A
C574        O575   1.264       .  A
C574       C1134   1.465       .  S
O575       Al577   1.926       .  S
O576        C578   1.260       .  A
O576       Al577   1.894       .  S
Al577       O585   1.877       .  S
Al577       O587   1.927       .  S
Al577       O586   1.782       .  S
C578        O591   1.262       .  A
C578       C2830   1.488       .  S
O579        C589   1.257       .  A
O579       Al581   1.879       .  S
O580        C593   1.262   1_554  A
O580       Al590   1.902       .  S
Al581       O594   1.906   1_554  S
Al581       O591   1.917       .  S
Al581       O586   1.769       .  S
O582        C589   1.265       .  A
O582       Al590   1.930       .  S
O583        C592   1.264       .  A
O583       Al590   1.928       .  S
O584       Al590   1.876       .  S
O585        C592   1.256       .  A
O586       Al590   1.786       .  S
O587        C588   1.265   1_554  A
C588       C1093   1.477       .  S
C589       C1742   1.476       .  S
C592        C974   1.473       .  S
C593        O594   1.263       .  A
C593       C1550   1.470       .  S
O595        C610   1.258       .  A
O595       Al603   1.886       .  S
C596        O606   1.259       .  A
C596        O597   1.262       .  A
C596       C1038   1.476       .  S
O597       Al599   1.905       .  S
O598        C600   1.258       .  A
O598       Al599   1.888       .  S
Al599       O607   1.885       .  S
Al599       O609   1.908   1_556  S
Al599       O608   1.783       .  S
C600        O613   1.264       .  A
C600       C2190   1.491       .  S
O601        C611   1.263       .  A
O601       Al603   1.905   1_556  S
O602        C615   1.261       .  A
O602       Al612   1.898   1_554  S
Al603       O616   1.915       .  S
Al603       O613   1.922   1_554  S
Al603       O608   1.780   1_554  S
O604        C611   1.261       .  A
O604       Al612   1.910       .  S
O605        C614   1.261       .  A
O605       Al612   1.916       .  S
O606       Al612   1.887       .  S
O607        C614   1.259       .  A
O608       Al612   1.786       .  S
O609        C610   1.259       .  A
C610       C1061   1.461       .  S
C611        C933   1.496       .  S
C614        C965   1.490       .  S
C615        O616   1.264       .  A
C615        C910   1.473       .  S
O617        C632   1.268       .  A
O617       Al625   1.929       .  S
C618        O628   1.263       .  A
C618        O619   1.263       .  A
C618        C837   1.490       .  S
O619       Al621   1.895       .  S
O620        C622   1.262       .  A
O620       Al621   1.909       .  S
Al621       O629   1.927       .  S
Al621       O631   1.894       .  S
Al621       O630   1.778       .  S
C622        O635   1.258       .  A
C622       C3685   1.470       .  S
O623        C633   1.266       .  A
O623       Al625   1.934       .  S
O624        C637   1.264       .  A
O624       Al634   1.916       .  S
Al625       O638   1.880       .  S
Al625       O635   1.898       .  S
Al625       O630   1.784       .  S
O626        C633   1.257       .  A
O626       Al634   1.876       .  S
O627        C636   1.257   1_655  A
O627       Al634   1.886       .  S
O628       Al634   1.920       .  S
O629        C636   1.264   1_655  A
O630       Al634   1.777       .  S
O631        C632   1.261       .  A
C632       C3342   1.496       .  S
C633        C869   1.475       .  S
C636        C942   1.485       .  S
C637        O638   1.255       .  A
C637        C805   1.488       .  S
O639        C654   1.263       .  A
O639       Al647   1.925       .  S
C640        O650   1.264   1_655  A
C640        O641   1.258       .  A
C640        C741   1.488   1_655  S
O641       Al643   1.869       .  S
O642        C644   1.265       .  A
O642       Al643   1.905       .  S
Al643       O651   1.909       .  S
Al643       O653   1.897       .  S
Al643       O652   1.776       .  S
C644        O657   1.263       .  A
C644       C1413   1.477       .  S
O645        C655   1.262       .  A
O645       Al647   1.924       .  S
O646        C659   1.265       .  A
O646       Al656   1.919       .  S
Al647       O660   1.884       .  S
Al647       O657   1.904       .  S
Al647       O652   1.787       .  S
O648        C655   1.258       .  A
O648       Al656   1.885       .  S
O649        C658   1.257       .  A
O649       Al656   1.891   1_455  S
O650       Al656   1.927   1_455  S
O651        C658   1.260   1_655  A
O652       Al656   1.783       .  S
O653        C654   1.259       .  A
C654       C1230   1.472       .  S
C655        C878   1.492       .  S
C658       C2286   1.476       .  S
C659        O660   1.260       .  A
C659        C782   1.473       .  S
O661        C676   1.257       .  A
O661       Al669   1.878       .  S
C662        O672   1.261       .  A
C662        O663   1.263       .  A
C662        C846   1.482       .  S
O663       Al665   1.917       .  S
O664        C666   1.258       .  A
O664       Al665   1.888       .  S
Al665       O673   1.880       .  S
Al665       O675   1.922       .  S
Al665       O674   1.778       .  S
C666        O679   1.265       .  A
C666       C3726   1.493   1_455  S
O667        C677   1.257       .  A
O667       Al669   1.887       .  S
O668        C681   1.261       .  A
O668       Al678   1.898       .  S
Al669       O682   1.911       .  S
Al669       O679   1.925       .  S
Al669       O674   1.774       .  S
O670        C677   1.263       .  A
O670       Al678   1.922       .  S
O671        C680   1.264       .  A
O671       Al678   1.929       .  S
O672       Al678   1.891       .  S
O673        C680   1.257       .  A
O674       Al678   1.788       .  S
O675        C676   1.261       .  A
C676        C814   1.491       .  S
C677       C1006   1.472       .  S
C680        C709   1.474       .  S
C681        O682   1.265       .  A
C681        C901   1.471       .  S
O683        C698   1.261       .  A
O683       Al691   1.885       .  S
C684        O694   1.260       .  A
C684        O685   1.263       .  A
C684        C750   1.479       .  S
O685       Al687   1.913       .  S
O686        C688   1.256       .  A
O686       Al687   1.890       .  S
Al687       O695   1.876       .  S
Al687       O697   1.923       .  S
Al687       O696   1.784       .  S
C688        O701   1.260       .  A
C688       C1445   1.475   1_455  S
O689        C699   1.261       .  A
O689       Al691   1.892       .  S
O690        C703   1.263       .  A
O690       Al700   1.914       .  S
Al691       O704   1.909       .  S
Al691       O701   1.917       .  S
Al691       O696   1.780       .  S
O692        C699   1.265       .  A
O692       Al700   1.922       .  S
O693        C702   1.262       .  A
O693       Al700   1.925       .  S
O694       Al700   1.887       .  S
O695        C702   1.257       .  A
O696       Al700   1.789       .  S
O697        C698   1.265       .  A
C698        C773   1.480       .  S
C699       C2437   1.469       .  S
C702        C718   1.493       .  S
C703        O704   1.262       .  A
C703       C2245   1.484       .  S
C705        C706   1.400       .  A
C705        C710   1.402       .  A
C705        H715   1.085       .  S
C706        C711   1.478       .  S
C706        C707   1.411       .  A
C707        C708   1.404       .  A
C707        C712   1.506       .  S
C708        C709   1.403       .  A
C708        H713   1.084       .  S
C709        C710   1.415       .  A
C710        C714   1.509       .  S
C711        C716   1.407       .  A
C711        C720   1.400       .  A
C712        H728   1.110       .  S
C712        H729   1.110       .  S
C712        H730   1.111       .  S
C714        H725   1.111       .  S
C714        H726   1.111       .  S
C714        H727   1.107       .  S
C716        C717   1.398   1_545  A
C716        C721   1.509       .  S
C717        C718   1.410       .  A
C717        H722   1.083       .  S
C718        C719   1.422       .  A
C719        C720   1.408   1_565  A
C719        C723   1.507       .  S
C720        H724   1.084       .  S
C721        H731   1.111       .  S
C721        H732   1.110       .  S
C721        H733   1.110       .  S
C723        H734   1.111       .  S
C723        H735   1.110       .  S
C723        H736   1.110       .  S
C737        C738   1.401       .  A
C737        C742   1.408       .  A
C737        H747   1.084       .  S
C738        C743   1.476       .  S
C738        C739   1.407       .  A
C739        C740   1.396   1_455  A
C739        C744   1.508   1_455  S
C740        C741   1.408   1_655  A
C740        H745   1.084       .  S
C741        C742   1.421       .  A
C742        C746   1.507       .  S
C743        C748   1.409   1_556  A
C743        C752   1.400   1_556  A
C744        H760   1.110       .  S
C744        H761   1.110       .  S
C744        H762   1.111       .  S
C746        H757   1.111       .  S
C746        H758   1.110       .  S
C746        H759   1.111       .  S
C748        C749   1.401       .  A
C748        C753   1.507   1_554  S
C749        C750   1.406       .  A
C749        H754   1.084       .  S
C750        C751   1.419       .  A
C751        C752   1.403       .  A
C751        C755   1.508       .  S
C752        H756   1.085       .  S
C753        H763   1.111       .  S
C753        H764   1.110       .  S
C753        H765   1.110       .  S
C755        H766   1.111       .  S
C755        H767   1.107       .  S
C755        H768   1.110       .  S
C769        C770   1.398   1_455  A
C769        C774   1.398       .  A
C769        H779   1.085       .  S
C770        C775   1.476       .  S
C770        C771   1.412       .  A
C771        C772   1.404       .  A
C771        C776   1.506       .  S
C772        C773   1.406   1_655  A
C772        H777   1.085       .  S
C773        C774   1.416       .  A
C774        C778   1.504       .  S
C775        C780   1.411       .  A
C775        C784   1.401       .  A
C776        H792   1.110       .  S
C776        H793   1.109       .  S
C776        H794   1.110       .  S
C778        H789   1.111       .  S
C778        H790   1.111       .  S
C778        H791   1.104       .  S
C780        C781   1.400       .  A
C780        C785   1.507       .  S
C781        C782   1.404       .  A
C781        H786   1.084       .  S
C782        C783   1.414       .  A
C783        C784   1.403       .  A
C783        C787   1.508       .  S
C784        H788   1.084       .  S
C785        H795   1.111       .  S
C785        H796   1.110       .  S
C785        H797   1.109       .  S
C787        H798   1.111       .  S
C787        H799   1.109       .  S
C787        H800   1.111       .  S
C801        C802   1.399       .  A
C801        C806   1.404   1_554  A
C801        H811   1.084       .  S
C802        C807   1.476       .  S
C802        C803   1.406       .  A
C803        C804   1.400   1_554  A
C803        C808   1.506   1_655  S
C804        C805   1.408       .  A
C804        H809   1.083       .  S
C805        C806   1.424       .  A
C806        C810   1.510       .  S
C807        C812   1.407   1_655  A
C807        C816   1.399       .  A
C808        H824   1.110       .  S
C808        H825   1.110       .  S
C808        H826   1.111   1_554  S
C810        H821   1.110       .  S
C810        H822   1.111   1_556  S
C810        H823   1.110       .  S
C812        C813   1.397       .  A
C812        C817   1.509       .  S
C813        C814   1.409       .  A
C813        H818   1.082       .  S
C814        C815   1.423   1_455  A
C815        C816   1.407       .  A
C815        C819   1.508       .  S
C816        H820   1.084       .  S
C817        H827   1.111       .  S
C817        H828   1.110   1_455  S
C817        H829   1.110       .  S
C819        H830   1.110       .  S
C819        H831   1.109       .  S
C819        H832   1.111       .  S
C833        C834   1.399       .  A
C833        C838   1.406       .  A
C833        H843   1.083       .  S
C834        C839   1.479       .  S
C834        C835   1.409   1_455  A
C835        C836   1.401       .  A
C835        C840   1.508       .  S
C836        C837   1.407       .  A
C836        H841   1.083       .  S
C837        C838   1.424   1_655  A
C838        C842   1.508       .  S
C839        C844   1.409       .  A
C839        C848   1.399       .  A
C840        H856   1.110       .  S
C840        H857   1.111       .  S
C840        H858   1.111       .  S
C842        H853   1.111       .  S
C842        H854   1.111       .  S
C842        H855   1.110       .  S
C844        C845   1.401       .  A
C844        C849   1.507       .  S
C845        C846   1.406       .  A
C845        H850   1.084       .  S
C846        C847   1.419       .  A
C847        C848   1.403       .  A
C847        C851   1.508       .  S
C848        H852   1.085       .  S
C849        H859   1.111       .  S
C849        H860   1.110       .  S
C849        H861   1.110       .  S
C851        H862   1.111       .  S
C851        H863   1.109       .  S
C851        H864   1.111       .  S
C865        C866   1.401       .  A
C865        C870   1.405       .  A
C865        H875   1.084       .  S
C866        C871   1.481       .  S
C866        C867   1.409       .  A
C867        C868   1.402       .  A
C867        C872   1.507       .  S
C868        C869   1.405       .  A
C868        H873   1.085       .  S
C869        C870   1.417       .  A
C870        C874   1.508       .  S
C871        C876   1.409       .  A
C871        C880   1.399       .  A
C872        H888   1.110       .  S
C872        H889   1.109       .  S
C872        H890   1.111       .  S
C874        H885   1.110       .  S
C874        H886   1.110       .  S
C874        H887   1.105       .  S
C876        C877   1.401   1_545  A
C876        C881   1.508       .  S
C877        C878   1.409       .  A
C877        H882   1.084       .  S
C878        C879   1.422       .  A
C879        C880   1.408   1_565  A
C879        C883   1.507       .  S
C880        H884   1.084       .  S
C881        H891   1.111   1_655  S
C881        H892   1.110       .  S
C881        H893   1.109       .  S
C883        H894   1.111       .  S
C883        H895   1.110       .  S
C883        H896   1.110       .  S
C897        C898   1.401       .  A
C897        C902   1.398       .  A
C897        H907   1.084       .  S
C898        C903   1.479       .  S
C898        C899   1.413       .  A
C899        C900   1.406       .  A
C899        C904   1.506       .  S
C900        C901   1.404       .  A
C900        H905   1.084       .  S
C901        C902   1.412       .  A
C902        C906   1.506       .  S
C903        C908   1.412       .  A
C903        C912   1.401       .  A
C904        H920   1.109       .  S
C904        H921   1.110       .  S
C904        H922   1.111       .  S
C906        H917   1.111       .  S
C906        H918   1.108       .  S
C906        H919   1.111       .  S
C908        C909   1.406       .  A
C908        C913   1.506       .  S
C909        C910   1.405       .  A
C909        H914   1.085       .  S
C910        C911   1.414       .  A
C911        C912   1.396       .  A
C911        C915   1.505       .  S
C912        H916   1.085       .  S
C913        H923   1.111       .  S
C913        H924   1.109       .  S
C913        H925   1.110       .  S
C915        H926   1.110       .  S
C915        H927   1.103       .  S
C915        H928   1.110       .  S
C929        C930   1.397       .  A
C929        C934   1.404       .  A
C929        H939   1.084       .  S
C930        C935   1.481       .  S
C930        C931   1.408       .  A
C931        C932   1.405       .  A
C931        C936   1.507       .  S
C932        C933   1.410       .  A
C932        H937   1.083       .  S
C933        C934   1.426       .  A
C934        C938   1.510       .  S
C935        C940   1.409       .  A
C935        C944   1.400       .  A
C936        H952   1.110       .  S
C936        H953   1.109       .  S
C936        H954   1.111       .  S
C938        H949   1.111       .  S
C938        H950   1.111       .  S
C938        H951   1.110       .  S
C940        C941   1.404       .  A
C940        C945   1.506       .  S
C941        C942   1.407       .  A
C941        H946   1.084       .  S
C942        C943   1.419       .  A
C943        C944   1.404       .  A
C943        C947   1.510       .  S
C944        H948   1.085       .  S
C945        H955   1.111       .  S
C945        H956   1.110       .  S
C945        H957   1.109       .  S
C947        H958   1.111       .  S
C947        H959   1.110       .  S
C947        H960   1.111   1_455  S
C961        C962   1.398   1_556  A
C961        C966   1.407       .  A
C961        H971   1.084       .  S
C962        C967   1.475       .  S
C962        C963   1.407       .  A
C963        C964   1.397       .  A
C963        C968   1.509       .  S
C964        C965   1.408   1_554  A
C964        H969   1.083       .  S
C965        C966   1.424       .  A
C966        C970   1.508       .  S
C967        C972   1.410       .  A
C967        C976   1.400   1_554  A
C968        H984   1.110       .  S
C968        H985   1.110       .  S
C968        H986   1.110       .  S
C970        H981   1.111       .  S
C970        H982   1.110       .  S
C970        H983   1.110       .  S
C972        C973   1.402       .  A
C972        C977   1.506       .  S
C973        C974   1.403       .  A
C973        H978   1.084       .  S
C974        C975   1.416   1_554  A
C975        C976   1.402       .  A
C975        C979   1.509       .  S
C976        H980   1.084       .  S
C977        H987   1.111       .  S
C977        H988   1.110       .  S
C977        H989   1.110       .  S
C979        H990   1.111       .  S
C979        H991   1.111       .  S
C979        H992   1.108       .  S
C993        C994   1.402       .  A
C993        C998   1.403       .  A
C993       H1003   1.085       .  S
C994        C999   1.477       .  S
C994        C995   1.410       .  A
C995        C996   1.400       .  A
C995       C1000   1.507       .  S
C996        C997   1.404       .  A
C996       H1001   1.085       .  S
C997        C998   1.417       .  A
C998       C1002   1.510       .  S
C999       C1004   1.410       .  A
C999       C1008   1.400       .  A
C1000      H1016   1.110       .  S
C1000      H1017   1.110       .  S
C1000      H1018   1.111       .  S
C1002      H1013   1.110       .  S
C1002      H1014   1.110       .  S
C1002      H1015   1.106       .  S
C1004      C1005   1.403       .  A
C1004      C1009   1.506       .  S
C1005      C1006   1.404       .  A
C1005      H1010   1.084       .  S
C1006      C1007   1.417       .  A
C1007      C1008   1.400       .  A
C1007      C1011   1.509       .  S
C1008      H1012   1.085       .  S
C1009      H1019   1.111       .  S
C1009      H1020   1.110       .  S
C1009      H1021   1.110       .  S
C1011      H1022   1.111       .  S
C1011      H1023   1.104       .  S
C1011      H1024   1.110       .  S
C1025      C1026   1.395       .  A
C1025      C1030   1.397       .  A
C1025      H1035   1.085       .  S
C1026      C1031   1.471       .  S
C1026      C1027   1.408       .  A
C1027      C1028   1.403       .  A
C1027      C1032   1.506       .  S
C1028      C1029   1.407       .  A
C1028      H1033   1.084       .  S
C1029      C1030   1.423       .  A
C1030      C1034   1.511       .  S
C1031      C1036   1.408       .  A
C1031      C1040   1.401       .  A
C1032      H1048   1.110       .  S
C1032      H1049   1.109       .  S
C1032      H1050   1.111       .  S
C1034      H1045   1.110       .  S
C1034      H1046   1.111       .  S
C1034      H1047   1.111       .  S
C1036      C1037   1.395       .  A
C1036      C1041   1.509       .  S
C1037      C1038   1.404       .  A
C1037      H1042   1.082       .  S
C1038      C1039   1.417       .  A
C1039      C1040   1.404       .  A
C1039      C1043   1.507       .  S
C1040      H1044   1.084       .  S
C1041      H1051   1.111       .  S
C1041      H1052   1.110       .  S
C1041      H1053   1.108       .  S
C1043      H1054   1.109       .  S
C1043      H1055   1.111       .  S
C1043      H1056   1.111       .  S
C1057      C1058   1.401       .  A
C1057      C1062   1.400       .  A
C1057      H1067   1.085       .  S
C1058      C1063   1.474       .  S
C1058      C1059   1.410       .  A
C1059      C1060   1.401       .  A
C1059      C1064   1.506       .  S
C1060      C1061   1.401       .  A
C1060      H1065   1.084       .  S
C1061      C1062   1.412       .  A
C1062      C1066   1.508       .  S
C1063      C1068   1.409       .  A
C1063      C1072   1.402       .  A
C1064      H1080   1.110       .  S
C1064      H1081   1.110       .  S
C1064      H1082   1.111       .  S
C1066      H1077   1.109       .  S
C1066      H1078   1.110       .  S
C1066      H1079   1.109       .  S
C1068      C1069   1.398       .  A
C1068      C1073   1.508       .  S
C1069      C1070   1.403       .  A
C1069      H1074   1.085       .  S
C1070      C1071   1.415       .  A
C1071      C1072   1.404       .  A
C1071      C1075   1.507       .  S
C1072      H1076   1.084       .  S
C1073      H1083   1.110       .  S
C1073      H1084   1.110       .  S
C1073      H1085   1.110       .  S
C1075      H1086   1.110       .  S
C1075      H1087   1.107       .  S
C1075      H1088   1.110       .  S
C1089      C1090   1.397       .  A
C1089      C1094   1.397       .  A
C1089      H1099   1.085       .  S
C1090      C1095   1.471       .  S
C1090      C1091   1.407       .  A
C1091      C1092   1.402       .  A
C1091      C1096   1.505       .  S
C1092      C1093   1.406       .  A
C1092      H1097   1.084       .  S
C1093      C1094   1.421       .  A
C1094      C1098   1.510       .  S
C1095      C1100   1.408       .  A
C1095      C1104   1.400       .  A
C1096      H1112   1.110       .  S
C1096      H1113   1.110       .  S
C1096      H1114   1.111       .  S
C1098      H1109   1.111       .  S
C1098      H1110   1.110       .  S
C1098      H1111   1.110       .  S
C1100      C1101   1.399       .  A
C1100      C1105   1.507       .  S
C1101      C1102   1.404       .  A
C1101      H1106   1.083       .  S
C1102      C1103   1.415       .  A
C1103      C1104   1.400       .  A
C1103      C1107   1.508       .  S
C1104      H1108   1.085       .  S
C1105      H1115   1.111       .  S
C1105      H1116   1.110       .  S
C1105      H1117   1.110       .  S
C1107      H1118   1.108       .  S
C1107      H1119   1.110       .  S
C1107      H1120   1.111       .  S
C1121      C1122   1.401       .  A
C1121      C1126   1.399       .  A
C1121      H1131   1.085       .  S
C1122      C1127   1.475       .  S
C1122      C1123   1.411       .  A
C1123      C1124   1.403       .  A
C1123      C1128   1.506       .  S
C1124      C1125   1.401       .  A
C1124      H1129   1.084       .  S
C1125      C1126   1.412       .  A
C1126      C1130   1.508       .  S
C1127      C1132   1.411       .  A
C1127      C1136   1.399       .  A
C1128      H1144   1.110       .  S
C1128      H1145   1.110       .  S
C1128      H1146   1.111       .  S
C1130      H1141   1.110       .  S
C1130      H1142   1.111       .  S
C1130      H1143   1.107       .  S
C1132      C1133   1.405       .  A
C1132      C1137   1.506       .  S
C1133      C1134   1.403       .  A
C1133      H1138   1.083       .  S
C1134      C1135   1.415       .  A
C1135      C1136   1.397       .  A
C1135      C1139   1.511       .  S
C1136      H1140   1.085       .  S
C1137      H1147   1.111       .  S
C1137      H1148   1.110       .  S
C1137      H1149   1.111       .  S
C1139      H1150   1.111       .  S
C1139      H1151   1.107       .  S
C1139      H1152   1.110       .  S
C1153      C1154   1.401       .  A
C1153      C1158   1.405       .  A
C1153      H1163   1.084       .  S
C1154      C1159   1.478       .  S
C1154      C1155   1.410       .  A
C1155      C1156   1.400       .  A
C1155      C1160   1.507       .  S
C1156      C1157   1.401       .  A
C1156      H1161   1.085       .  S
C1157      C1158   1.417       .  A
C1158      C1162   1.508       .  S
C1159      C1164   1.410       .  A
C1159      C1168   1.403       .  A
C1160      H1176   1.110       .  S
C1160      H1177   1.110       .  S
C1160      H1178   1.111       .  S
C1162      H1173   1.111       .  S
C1162      H1174   1.110       .  S
C1162      H1175   1.106       .  S
C1164      C1165   1.398       .  A
C1164      C1169   1.507       .  S
C1165      C1166   1.402       .  A
C1165      H1170   1.085       .  S
C1166      C1167   1.415       .  A
C1167      C1168   1.406       .  A
C1167      C1171   1.507       .  S
C1168      H1172   1.084       .  S
C1169      H1179   1.111       .  S
C1169      H1180   1.110       .  S
C1169      H1181   1.110       .  S
C1171      H1182   1.110       .  S
C1171      H1183   1.107       .  S
C1171      H1184   1.111       .  S
C1185      C1186   1.401       .  A
C1185      C1190   1.408       .  A
C1185      H1195   1.085       .  S
C1186      C1191   1.480       .  S
C1186      C1187   1.409       .  A
C1187      C1188   1.399       .  A
C1187      C1192   1.508       .  S
C1188      C1189   1.407       .  A
C1188      H1193   1.084       .  S
C1189      C1190   1.419       .  A
C1190      C1194   1.507       .  S
C1191      C1196   1.409       .  A
C1191      C1200   1.402       .  A
C1192      H1208   1.110       .  S
C1192      H1209   1.110       .  S
C1192      H1210   1.111       .  S
C1194      H1205   1.111       .  S
C1194      H1206   1.110       .  S
C1194      H1207   1.110       .  S
C1196      C1197   1.402       .  A
C1196      C1201   1.506       .  S
C1197      C1198   1.404       .  A
C1197      H1202   1.084       .  S
C1198      C1199   1.417       .  A
C1199      C1200   1.404       .  A
C1199      C1203   1.509       .  S
C1200      H1204   1.084       .  S
C1201      H1211   1.111       .  S
C1201      H1212   1.110       .  S
C1201      H1213   1.110       .  S
C1203      H1214   1.111       .  S
C1203      H1215   1.108       .  S
C1203      H1216   1.110       .  S
C1217      C1218   1.400       .  A
C1217      C1222   1.404       .  A
C1217      H1227   1.084       .  S
C1218      C1223   1.479       .  S
C1218      C1219   1.411       .  A
C1219      C1220   1.404       .  A
C1219      C1224   1.506       .  S
C1220      C1221   1.404       .  A
C1220      H1225   1.084       .  S
C1221      C1222   1.418       .  A
C1222      C1226   1.509       .  S
C1223      C1228   1.411       .  A
C1223      C1232   1.399       .  A
C1224      H1240   1.110       .  S
C1224      H1241   1.110       .  S
C1224      H1242   1.111       .  S
C1226      H1237   1.111       .  S
C1226      H1238   1.109       .  S
C1226      H1239   1.111       .  S
C1228      C1229   1.406       .  A
C1228      C1233   1.505       .  S
C1229      C1230   1.403       .  A
C1229      H1234   1.085       .  S
C1230      C1231   1.417       .  A
C1231      C1232   1.400       .  A
C1231      C1235   1.508       .  S
C1232      H1236   1.085       .  S
C1233      H1243   1.111       .  S
C1233      H1244   1.110       .  S
C1233      H1245   1.109       .  S
C1235      H1246   1.110       .  S
C1235      H1247   1.103       .  S
C1235      H1248   1.111       .  S
C1249      C1250   1.398       .  A
C1249      C1254   1.404       .  A
C1249      H1259   1.084       .  S
C1250      C1255   1.474       .  S
C1250      C1251   1.407       .  A
C1251      C1252   1.398       .  A
C1251      C1256   1.507       .  S
C1252      C1253   1.407       .  A
C1252      H1257   1.084       .  S
C1253      C1254   1.422       .  A
C1254      C1258   1.508       .  S
C1255      C1260   1.408       .  A
C1255      C1264   1.400       .  A
C1256      H1272   1.110       .  S
C1256      H1273   1.110       .  S
C1256      H1274   1.111       .  S
C1258      H1269   1.109       .  S
C1258      H1270   1.111       .  S
C1258      H1271   1.110       .  S
C1260      C1261   1.397       .  A
C1260      C1265   1.508       .  S
C1261      C1262   1.405       .  A
C1261      H1266   1.085       .  S
C1262      C1263   1.418       .  A
C1263      C1264   1.404       .  A
C1263      C1267   1.508       .  S
C1264      H1268   1.084       .  S
C1265      H1275   1.111       .  S
C1265      H1276   1.110       .  S
C1265      H1277   1.110       .  S
C1267      H1278   1.110       .  S
C1267      H1279   1.104       .  S
C1267      H1280   1.111       .  S
C1281      C1282   1.398       .  A
C1281      C1286   1.396       .  A
C1281      H1291   1.085       .  S
C1282      C1287   1.470       .  S
C1282      C1283   1.410       .  A
C1283      C1284   1.403       .  A
C1283      C1288   1.506       .  S
C1284      C1285   1.401       .  A
C1284      H1289   1.084       .  S
C1285      C1286   1.415       .  A
C1286      C1290   1.511       .  S
C1287      C1292   1.409       .  A
C1287      C1296   1.400       .  A
C1288      H1304   1.110       .  S
C1288      H1305   1.110       .  S
C1288      H1306   1.111       .  S
C1290      H1301   1.110       .  S
C1290      H1302   1.110       .  S
C1290      H1303   1.108       .  S
C1292      C1293   1.397       .  A
C1292      C1297   1.507       .  S
C1293      C1294   1.401       .  A
C1293      H1298   1.085       .  S
C1294      C1295   1.414       .  A
C1295      C1296   1.401       .  A
C1295      C1299   1.509       .  S
C1296      H1300   1.085       .  S
C1297      H1307   1.111       .  S
C1297      H1308   1.110       .  S
C1297      H1309   1.110       .  S
C1299      H1310   1.111       .  S
C1299      H1311   1.107       .  S
C1299      H1312   1.110       .  S
C1313      C1314   1.400       .  A
C1313      C1318   1.406       .  A
C1313      H1323   1.084       .  S
C1314      C1319   1.474       .  S
C1314      C1315   1.408       .  A
C1315      C1316   1.396       .  A
C1315      C1320   1.509       .  S
C1316      C1317   1.405       .  A
C1316      H1321   1.082       .  S
C1317      C1318   1.418       .  A
C1318      C1322   1.507       .  S
C1319      C1324   1.407       .  A
C1319      C1328   1.399       .  A
C1320      H1336   1.110       .  S
C1320      H1337   1.110       .  S
C1320      H1338   1.111       .  S
C1322      H1333   1.110       .  S
C1322      H1334   1.111       .  S
C1322      H1335   1.111       .  S
C1324      C1325   1.400       .  A
C1324      C1329   1.507       .  S
C1325      C1326   1.407       .  A
C1325      H1330   1.085       .  S
C1326      C1327   1.420       .  A
C1327      C1328   1.402       .  A
C1327      C1331   1.507       .  S
C1328      H1332   1.085       .  S
C1329      H1339   1.111       .  S
C1329      H1340   1.110       .  S
C1329      H1341   1.110       .  S
C1331      H1342   1.110       .  S
C1331      H1343   1.100       .  S
C1331      H1344   1.111       .  S
C1345      C1346   1.401       .  A
C1345      C1350   1.408       .  A
C1345      H1355   1.084       .  S
C1346      C1351   1.471       .  S
C1346      C1347   1.407       .  A
C1347      C1348   1.391       .  A
C1347      C1352   1.510       .  S
C1348      C1349   1.404       .  A
C1348      H1353   1.084       .  S
C1349      C1350   1.418       .  A
C1350      C1354   1.506       .  S
C1351      C1356   1.410       .  A
C1351      C1360   1.399       .  A
C1352      H1368   1.110       .  S
C1352      H1369   1.110       .  S
C1352      H1370   1.111       .  S
C1354      H1365   1.111       .  S
C1354      H1366   1.110       .  S
C1354      H1367   1.110       .  S
C1356      C1357   1.400       .  A
C1356      C1361   1.507       .  S
C1357      C1358   1.403       .  A
C1357      H1362   1.084       .  S
C1358      C1359   1.415       .  A
C1359      C1360   1.400       .  A
C1359      C1363   1.508       .  S
C1360      H1364   1.085       .  S
C1361      H1371   1.111       .  S
C1361      H1372   1.110       .  S
C1361      H1373   1.110       .  S
C1363      H1374   1.111       .  S
C1363      H1375   1.110       .  S
C1363      H1376   1.109       .  S
C1377      C1378   1.402   1_556  A
C1377      C1382   1.407   1_556  A
C1377      H1387   1.084       .  S
C1378      C1383   1.481       .  S
C1378      C1379   1.411       .  A
C1379      C1380   1.402       .  A
C1379      C1384   1.508       .  S
C1380      C1381   1.404       .  A
C1380      H1385   1.084       .  S
C1381      C1382   1.416       .  A
C1382      C1386   1.507   1_554  S
C1383      C1388   1.408       .  A
C1383      C1392   1.397   1_554  A
C1384      H1400   1.110       .  S
C1384      H1401   1.110       .  S
C1384      H1402   1.111       .  S
C1386      H1397   1.111       .  S
C1386      H1398   1.111       .  S
C1386      H1399   1.110       .  S
C1388      C1389   1.406       .  A
C1388      C1393   1.505       .  S
C1389      C1390   1.409   1_554  A
C1389      H1394   1.084       .  S
C1390      C1391   1.425       .  A
C1391      C1392   1.402       .  A
C1391      C1395   1.510       .  S
C1392      H1396   1.085       .  S
C1393      H1403   1.111       .  S
C1393      H1404   1.110       .  S
C1393      H1405   1.110       .  S
C1395      H1406   1.111       .  S
C1395      H1407   1.110       .  S
C1395      H1408   1.111       .  S
C1409      C1410   1.402       .  A
C1409      C1414   1.407       .  A
C1409      H1419   1.085       .  S
C1410      C1415   1.478       .  S
C1410      C1411   1.412       .  A
C1411      C1412   1.398       .  A
C1411      C1416   1.510       .  S
C1412      C1413   1.403       .  A
C1412      H1417   1.085       .  S
C1413      C1414   1.417       .  A
C1414      C1418   1.506       .  S
C1415      C1420   1.405       .  A
C1415      C1424   1.400       .  A
C1416      H1432   1.110       .  S
C1416      H1433   1.109       .  S
C1416      H1434   1.111       .  S
C1418      H1429   1.111       .  S
C1418      H1430   1.110       .  S
C1418      H1431   1.110       .  S
C1420      C1421   1.403       .  A
C1420      C1425   1.506       .  S
C1421      C1422   1.411       .  A
C1421      H1426   1.083   1_556  S
C1422      C1423   1.422       .  A
C1423      C1424   1.403       .  A
C1423      C1427   1.508       .  S
C1424      H1428   1.085       .  S
C1425      H1435   1.111       .  S
C1425      H1436   1.110       .  S
C1425      H1437   1.109       .  S
C1427      H1438   1.110       .  S
C1427      H1439   1.111       .  S
C1427      H1440   1.109       .  S
C1441      C1442   1.400       .  A
C1441      C1446   1.401       .  A
C1441      H1451   1.085       .  S
C1442      C1447   1.482       .  S
C1442      C1443   1.412       .  A
C1443      C1444   1.405       .  A
C1443      C1448   1.506       .  S
C1444      C1445   1.404       .  A
C1444      H1449   1.084   1_655  S
C1445      C1446   1.416       .  A
C1446      C1450   1.508       .  S
C1447      C1452   1.411       .  A
C1447      C1456   1.399       .  A
C1448      H1464   1.110       .  S
C1448      H1465   1.110       .  S
C1448      H1466   1.111       .  S
C1450      H1461   1.111       .  S
C1450      H1462   1.110       .  S
C1450      H1463   1.106       .  S
C1452      C1453   1.404       .  A
C1452      C1457   1.506       .  S
C1453      C1454   1.404       .  A
C1453      H1458   1.083       .  S
C1454      C1455   1.423       .  A
C1455      C1456   1.403       .  A
C1455      C1459   1.510       .  S
C1456      H1460   1.084       .  S
C1457      H1467   1.111       .  S
C1457      H1468   1.109       .  S
C1457      H1469   1.110       .  S
C1459      H1470   1.111       .  S
C1459      H1471   1.111       .  S
C1459      H1472   1.110       .  S
C1473      C1474   1.402       .  A
C1473      C1478   1.406       .  A
C1473      H1483   1.084       .  S
C1474      C1479   1.481       .  S
C1474      C1475   1.408       .  A
C1475      C1476   1.401       .  A
C1475      C1480   1.507       .  S
C1476      C1477   1.407       .  A
C1476      H1481   1.083       .  S
C1477      C1478   1.420       .  A
C1478      C1482   1.509       .  S
C1479      C1484   1.411       .  A
C1479      C1488   1.402       .  A
C1480      H1496   1.110       .  S
C1480      H1497   1.110       .  S
C1480      H1498   1.111       .  S
C1482      H1493   1.109       .  S
C1482      H1494   1.111       .  S
C1482      H1495   1.111       .  S
C1484      C1485   1.402       .  A
C1484      C1489   1.507       .  S
C1485      C1486   1.403       .  A
C1485      H1490   1.084       .  S
C1486      C1487   1.416       .  A
C1487      C1488   1.403       .  A
C1487      C1491   1.507       .  S
C1488      H1492   1.084       .  S
C1489      H1499   1.111       .  S
C1489      H1500   1.110       .  S
C1489      H1501   1.110       .  S
C1491      H1502   1.110       .  S
C1491      H1503   1.106       .  S
C1491      H1504   1.111       .  S
C1505      C1506   1.403       .  A
C1505      C1510   1.406       .  A
C1505      H1515   1.085       .  S
C1506      C1511   1.484       .  S
C1506      C1507   1.410       .  A
C1507      C1508   1.401       .  A
C1507      C1512   1.508       .  S
C1508      C1509   1.407       .  A
C1508      H1513   1.084       .  S
C1509      C1510   1.418       .  A
C1510      C1514   1.507       .  S
C1511      C1516   1.409       .  A
C1511      C1520   1.398       .  A
C1512      H1528   1.110       .  S
C1512      H1529   1.110       .  S
C1512      H1530   1.111       .  S
C1514      H1525   1.111       .  S
C1514      H1526   1.110       .  S
C1514      H1527   1.106       .  S
C1516      C1517   1.406       .  A
C1516      C1521   1.506       .  S
C1517      C1518   1.410       .  A
C1517      H1522   1.083       .  S
C1518      C1519   1.425       .  A
C1519      C1520   1.405       .  A
C1519      C1523   1.508       .  S
C1520      H1524   1.085       .  S
C1521      H1531   1.111       .  S
C1521      H1532   1.110       .  S
C1521      H1533   1.110       .  S
C1523      H1534   1.111       .  S
C1523      H1535   1.110       .  S
C1523      H1536   1.109       .  S
C1537      C1538   1.398       .  A
C1537      C1542   1.408       .  A
C1537      H1547   1.084       .  S
C1538      C1543   1.482       .  S
C1538      C1539   1.410       .  A
C1539      C1540   1.401       .  A
C1539      C1544   1.509       .  S
C1540      C1541   1.408       .  A
C1540      H1545   1.084       .  S
C1541      C1542   1.425       .  A
C1542      C1546   1.508       .  S
C1543      C1548   1.412       .  A
C1543      C1552   1.403       .  A
C1544      H1560   1.110       .  S
C1544      H1561   1.110       .  S
C1544      H1562   1.111       .  S
C1546      H1557   1.109       .  S
C1546      H1558   1.111       .  S
C1546      H1559   1.111       .  S
C1548      C1549   1.401       .  A
C1548      C1553   1.507       .  S
C1549      C1550   1.402       .  A
C1549      H1554   1.084       .  S
C1550      C1551   1.412       .  A
C1551      C1552   1.405       .  A
C1551      C1555   1.506   1_556  S
C1552      H1556   1.084       .  S
C1553      H1563   1.111       .  S
C1553      H1564   1.110       .  S
C1553      H1565   1.110       .  S
C1555      H1566   1.111       .  S
C1555      H1567   1.110       .  S
C1555      H1568   1.110       .  S
C1569      C1570   1.400       .  A
C1569      C1574   1.402       .  A
C1569      H1579   1.084       .  S
C1570      C1575   1.481       .  S
C1570      C1571   1.412       .  A
C1571      C1572   1.406       .  A
C1571      C1576   1.506       .  S
C1572      C1573   1.403       .  A
C1572      H1577   1.084       .  S
C1573      C1574   1.414       .  A
C1574      C1578   1.509       .  S
C1575      C1580   1.410   1_545  A
C1575      C1584   1.400       .  A
C1576      H1592   1.110       .  S
C1576      H1593   1.110       .  S
C1576      H1594   1.111       .  S
C1578      H1589   1.111       .  S
C1578      H1590   1.111       .  S
C1578      H1591   1.109       .  S
C1580      C1581   1.406       .  A
C1580      C1585   1.505       .  S
C1581      C1582   1.405       .  A
C1581      H1586   1.084       .  S
C1582      C1583   1.415       .  A
C1583      C1584   1.400   1_565  A
C1583      C1587   1.508       .  S
C1584      H1588   1.085       .  S
C1585      H1595   1.111       .  S
C1585      H1596   1.110   1_565  S
C1585      H1597   1.110   1_565  S
C1587      H1598   1.110       .  S
C1587      H1599   1.106       .  S
C1587      H1600   1.111       .  S
C1601      C1602   1.402       .  A
C1601      C1606   1.407       .  A
C1601      H1611   1.084       .  S
C1602      C1607   1.484       .  S
C1602      C1603   1.409       .  A
C1603      C1604   1.403       .  A
C1603      C1608   1.507       .  S
C1604      C1605   1.407       .  A
C1604      H1609   1.084       .  S
C1605      C1606   1.418       .  A
C1606      C1610   1.509       .  S
C1607      C1612   1.411       .  A
C1607      C1616   1.398       .  A
C1608      H1624   1.110       .  S
C1608      H1625   1.109       .  S
C1608      H1626   1.111       .  S
C1610      H1621   1.111       .  S
C1610      H1622   1.111       .  S
C1610      H1623   1.110       .  S
C1612      C1613   1.408       .  A
C1612      C1617   1.506       .  S
C1613      C1614   1.407       .  A
C1613      H1618   1.084       .  S
C1614      C1615   1.422       .  A
C1615      C1616   1.403       .  A
C1615      C1619   1.509       .  S
C1616      H1620   1.084       .  S
C1617      H1627   1.111       .  S
C1617      H1628   1.110       .  S
C1617      H1629   1.109       .  S
C1619      H1630   1.111       .  S
C1619      H1631   1.109       .  S
C1619      H1632   1.108       .  S
C1633      C1634   1.401       .  A
C1633      C1638   1.402       .  A
C1633      H1643   1.084       .  S
C1634      C1639   1.479       .  S
C1634      C1635   1.408       .  A
C1635      C1636   1.404       .  A
C1635      C1640   1.507       .  S
C1636      C1637   1.408       .  A
C1636      H1641   1.083       .  S
C1637      C1638   1.417       .  A
C1638      C1642   1.508       .  S
C1639      C1644   1.410       .  A
C1639      C1648   1.401       .  A
C1640      H1656   1.110       .  S
C1640      H1657   1.108       .  S
C1640      H1658   1.111       .  S
C1642      H1653   1.110       .  S
C1642      H1654   1.111       .  S
C1642      H1655   1.108       .  S
C1644      C1645   1.397       .  A
C1644      C1649   1.511       .  S
C1645      C1646   1.408       .  A
C1645      H1650   1.083       .  S
C1646      C1647   1.423       .  A
C1647      C1648   1.409       .  A
C1647      C1651   1.508       .  S
C1648      H1652   1.084       .  S
C1649      H1659   1.111       .  S
C1649      H1660   1.110       .  S
C1649      H1661   1.108       .  S
C1651      H1662   1.110   1_554  S
C1651      H1663   1.111       .  S
C1651      H1664   1.111       .  S
C1665      C1666   1.401       .  A
C1665      C1670   1.406   1_554  A
C1665      H1675   1.084       .  S
C1666      C1671   1.472       .  S
C1666      C1667   1.407       .  A
C1667      C1668   1.395   1_554  A
C1667      C1672   1.509       .  S
C1668      C1669   1.407       .  A
C1668      H1673   1.083       .  S
C1669      C1670   1.419       .  A
C1670      C1674   1.507       .  S
C1671      C1676   1.406       .  A
C1671      C1680   1.394       .  A
C1672      H1688   1.110       .  S
C1672      H1689   1.109       .  S
C1672      H1690   1.111   1_554  S
C1674      H1685   1.111   1_556  S
C1674      H1686   1.110       .  S
C1674      H1687   1.111       .  S
C1676      C1677   1.405       .  A
C1676      C1681   1.506       .  S
C1677      C1678   1.411       .  A
C1677      H1682   1.084       .  S
C1678      C1679   1.425       .  A
C1679      C1680   1.397       .  A
C1679      C1683   1.510       .  S
C1680      H1684   1.085       .  S
C1681      H1691   1.111       .  S
C1681      H1692   1.110       .  S
C1681      H1693   1.110       .  S
C1683      H1694   1.110       .  S
C1683      H1695   1.110       .  S
C1683      H1696   1.111       .  S
C1697      C1698   1.400       .  A
C1697      C1702   1.400       .  A
C1697      H1707   1.084       .  S
C1698      C1703   1.475       .  S
C1698      C1699   1.411       .  A
C1699      C1700   1.403       .  A
C1699      C1704   1.507       .  S
C1700      C1701   1.401       .  A
C1700      H1705   1.084       .  S
C1701      C1702   1.413       .  A
C1702      C1706   1.508       .  S
C1703      C1708   1.409       .  A
C1703      C1712   1.400       .  A
C1704      H1720   1.110       .  S
C1704      H1721   1.110       .  S
C1704      H1722   1.111       .  S
C1706      H1717   1.110       .  S
C1706      H1718   1.110       .  S
C1706      H1719   1.107       .  S
C1708      C1709   1.397       .  A
C1708      C1713   1.509       .  S
C1709      C1710   1.403       .  A
C1709      H1714   1.084       .  S
C1710      C1711   1.419       .  A
C1711      C1712   1.405       .  A
C1711      C1715   1.508       .  S
C1712      H1716   1.084       .  S
C1713      H1723   1.111       .  S
C1713      H1724   1.110       .  S
C1713      H1725   1.110       .  S
C1715      H1726   1.111       .  S
C1715      H1727   1.105       .  S
C1715      H1728   1.110       .  S
C1729      C1730   1.399       .  A
C1729      C1734   1.404       .  A
C1729      H1739   1.084       .  S
C1730      C1735   1.479       .  S
C1730      C1731   1.410       .  A
C1731      C1732   1.404       .  A
C1731      C1736   1.507       .  S
C1732      C1733   1.406       .  A
C1732      H1737   1.084       .  S
C1733      C1734   1.419       .  A
C1734      C1738   1.508       .  S
C1735      C1740   1.411       .  A
C1735      C1744   1.398       .  A
C1736      H1752   1.110       .  S
C1736      H1753   1.110       .  S
C1736      H1754   1.111       .  S
C1738      H1749   1.111       .  S
C1738      H1750   1.110       .  S
C1738      H1751   1.111       .  S
C1740      C1741   1.405       .  A
C1740      C1745   1.505       .  S
C1741      C1742   1.404       .  A
C1741      H1746   1.084       .  S
C1742      C1743   1.419       .  A
C1743      C1744   1.401       .  A
C1743      C1747   1.509       .  S
C1744      H1748   1.085       .  S
C1745      H1755   1.111       .  S
C1745      H1756   1.110       .  S
C1745      H1757   1.110       .  S
C1747      H1758   1.109       .  S
C1747      H1759   1.111       .  S
C1747      H1760   1.111       .  S
C1761      C1762   1.401       .  A
C1761      C1766   1.402       .  A
C1761      H1771   1.085       .  S
C1762      C1767   1.472       .  S
C1762      C1763   1.408       .  A
C1763      C1764   1.397       .  A
C1763      C1768   1.508       .  S
C1764      C1765   1.403       .  A
C1764      H1769   1.085       .  S
C1765      C1766   1.418       .  A
C1766      C1770   1.510       .  S
C1767      C1772   1.407   1_556  A
C1767      C1776   1.400       .  A
C1768      H1784   1.110       .  S
C1768      H1785   1.110       .  S
C1768      H1786   1.111       .  S
C1770      H1781   1.111       .  S
C1770      H1782   1.110       .  S
C1770      H1783   1.104       .  S
C1772      C1773   1.394       .  A
C1772      C1777   1.509   1_554  S
C1773      C1774   1.407       .  A
C1773      H1778   1.084       .  S
C1774      C1775   1.421       .  A
C1775      C1776   1.406   1_554  A
C1775      C1779   1.507       .  S
C1776      H1780   1.084       .  S
C1777      H1787   1.111   1_556  S
C1777      H1788   1.110       .  S
C1777      H1789   1.110       .  S
C1779      H1790   1.111       .  S
C1779      H1791   1.111       .  S
C1779      H1792   1.110       .  S
C1793      C1794   1.395       .  A
C1793      C1798   1.397       .  A
C1793      H1803   1.085       .  S
C1794      C1799   1.476       .  S
C1794      C1795   1.407       .  A
C1795      C1796   1.408       .  A
C1795      C1800   1.505       .  S
C1796      C1797   1.411       .  A
C1796      H1801   1.084       .  S
C1797      C1798   1.424       .  A
C1798      C1802   1.509       .  S
C1799      C1804   1.408       .  A
C1799      C1808   1.401       .  A
C1800      H1816   1.110       .  S
C1800      H1817   1.110       .  S
C1800      H1818   1.111       .  S
C1802      H1813   1.111       .  S
C1802      H1814   1.110       .  S
C1802      H1815   1.108       .  S
C1804      C1805   1.398       .  A
C1804      C1809   1.508       .  S
C1805      C1806   1.407       .  A
C1805      H1810   1.084       .  S
C1806      C1807   1.418       .  A
C1807      C1808   1.406       .  A
C1807      C1811   1.506       .  S
C1808      H1812   1.084       .  S
C1809      H1819   1.111       .  S
C1809      H1820   1.110       .  S
C1809      H1821   1.110       .  S
C1811      H1822   1.111       .  S
C1811      H1823   1.107       .  S
C1811      H1824   1.110       .  S
C1825      C1826   1.399       .  A
C1825      C1830   1.406       .  A
C1825      H1835   1.084       .  S
C1826      C1831   1.478       .  S
C1826      C1827   1.409       .  A
C1827      C1828   1.401       .  A
C1827      C1832   1.508       .  S
C1828      C1829   1.407       .  A
C1828      H1833   1.084       .  S
C1829      C1830   1.420       .  A
C1830      C1834   1.507       .  S
C1831      C1836   1.409   1_545  A
C1831      C1840   1.399       .  A
C1832      H1848   1.110       .  S
C1832      H1849   1.110       .  S
C1832      H1850   1.111       .  S
C1834      H1845   1.110       .  S
C1834      H1846   1.111       .  S
C1834      H1847   1.111       .  S
C1836      C1837   1.405       .  A
C1836      C1841   1.505       .  S
C1837      C1838   1.405       .  A
C1837      H1842   1.084       .  S
C1838      C1839   1.419       .  A
C1839      C1840   1.400   1_565  A
C1839      C1843   1.509       .  S
C1840      H1844   1.085       .  S
C1841      H1851   1.111       .  S
C1841      H1852   1.110   1_565  S
C1841      H1853   1.110   1_565  S
C1843      H1854   1.111       .  S
C1843      H1855   1.105       .  S
C1843      H1856   1.110       .  S
C1857      C1858   1.399       .  A
C1857      C1862   1.405       .  A
C1857      H1867   1.084       .  S
C1858      C1863   1.481       .  S
C1858      C1859   1.411       .  A
C1859      C1860   1.404       .  A
C1859      C1864   1.507       .  S
C1860      C1861   1.405       .  A
C1860      H1865   1.084       .  S
C1861      C1862   1.419       .  A
C1862      C1866   1.508       .  S
C1863      C1868   1.409       .  A
C1863      C1872   1.398       .  A
C1864      H1880   1.110       .  S
C1864      H1881   1.110       .  S
C1864      H1882   1.111       .  S
C1866      H1877   1.111       .  S
C1866      H1878   1.110       .  S
C1866      H1879   1.111       .  S
C1868      C1869   1.405       .  A
C1868      C1873   1.506       .  S
C1869      C1870   1.406       .  A
C1869      H1874   1.084       .  S
C1870      C1871   1.424       .  A
C1871      C1872   1.404       .  A
C1871      C1875   1.509       .  S
C1872      H1876   1.085       .  S
C1873      H1883   1.111       .  S
C1873      H1884   1.110       .  S
C1873      H1885   1.110       .  S
C1875      H1886   1.110       .  S
C1875      H1887   1.110       .  S
C1875      H1888   1.111       .  S
C1889      C1890   1.402       .  A
C1889      C1894   1.399       .  A
C1889      H1899   1.085       .  S
C1890      C1895   1.484       .  S
C1890      C1891   1.414       .  A
C1891      C1892   1.408       .  A
C1891      C1896   1.507       .  S
C1892      C1893   1.404       .  A
C1892      H1897   1.084       .  S
C1893      C1894   1.413       .  A
C1894      C1898   1.506       .  S
C1895      C1900   1.411       .  A
C1895      C1904   1.399       .  A
C1896      H1912   1.108       .  S
C1896      H1913   1.110       .  S
C1896      H1914   1.111       .  S
C1898      H1909   1.111       .  S
C1898      H1910   1.110       .  S
C1898      H1911   1.105       .  S
C1900      C1901   1.406       .  A
C1900      C1905   1.506       .  S
C1901      C1902   1.409       .  A
C1901      H1906   1.084       .  S
C1902      C1903   1.421       .  A
C1903      C1904   1.400       .  A
C1903      C1907   1.508       .  S
C1904      H1908   1.084       .  S
C1905      H1915   1.111       .  S
C1905      H1916   1.108       .  S
C1905      H1917   1.110       .  S
C1907      H1918   1.111       .  S
C1907      H1919   1.108       .  S
C1907      H1920   1.111       .  S
C1921      C1922   1.399       .  A
C1921      C1926   1.402       .  A
C1921      H1931   1.084       .  S
C1922      C1927   1.478       .  S
C1922      C1923   1.409       .  A
C1923      C1924   1.404       .  A
C1923      C1928   1.506       .  S
C1924      C1925   1.406       .  A
C1924      H1929   1.084       .  S
C1925      C1926   1.421       .  A
C1926      C1930   1.509       .  S
C1927      C1932   1.407       .  A
C1927      C1936   1.400       .  A
C1928      H1944   1.110       .  S
C1928      H1945   1.110       .  S
C1928      H1946   1.111       .  S
C1930      H1941   1.109       .  S
C1930      H1942   1.111       .  S
C1930      H1943   1.110       .  S
C1932      C1933   1.398       .  A
C1932      C1937   1.508       .  S
C1933      C1934   1.410       .  A
C1933      H1938   1.084       .  S
C1934      C1935   1.423       .  A
C1935      C1936   1.408       .  A
C1935      C1939   1.507       .  S
C1936      H1940   1.084       .  S
C1937      H1947   1.111   1_655  S
C1937      H1948   1.110       .  S
C1937      H1949   1.110       .  S
C1939      H1950   1.111       .  S
C1939      H1951   1.110       .  S
C1939      H1952   1.110       .  S
C1953      C1954   1.401       .  A
C1953      C1958   1.405       .  A
C1953      H1963   1.084       .  S
C1954      C1959   1.475       .  S
C1954      C1955   1.407       .  A
C1955      C1956   1.397       .  A
C1955      C1960   1.509       .  S
C1956      C1957   1.407       .  A
C1956      H1961   1.085       .  S
C1957      C1958   1.418       .  A
C1958      C1962   1.509       .  S
C1959      C1964   1.407       .  A
C1959      C1968   1.400       .  A
C1960      H1976   1.110       .  S
C1960      H1977   1.109       .  S
C1960      H1978   1.111       .  S
C1962      H1973   1.110       .  S
C1962      H1974   1.111       .  S
C1962      H1975   1.105       .  S
C1964      C1965   1.399       .  A
C1964      C1969   1.508       .  S
C1965      C1966   1.406       .  A
C1965      H1970   1.084       .  S
C1966      C1967   1.419       .  A
C1967      C1968   1.404       .  A
C1967      C1971   1.508       .  S
C1968      H1972   1.084       .  S
C1969      H1979   1.111       .  S
C1969      H1980   1.110       .  S
C1969      H1981   1.110       .  S
C1971      H1982   1.110       .  S
C1971      H1983   1.103   1_455  S
C1971      H1984   1.111   1_455  S
C1985      C1986   1.399       .  A
C1985      C1990   1.400       .  A
C1985      H1995   1.085       .  S
C1986      C1991   1.478       .  S
C1986      C1987   1.411       .  A
C1987      C1988   1.406       .  A
C1987      C1992   1.505       .  S
C1988      C1989   1.403       .  A
C1988      H1993   1.084       .  S
C1989      C1990   1.415       .  A
C1990      C1994   1.509       .  S
C1991      C1996   1.407       .  A
C1991      C2000   1.401       .  A
C1992      H2008   1.110       .  S
C1992      H2009   1.110       .  S
C1992      H2010   1.111       .  S
C1994      H2005   1.111       .  S
C1994      H2006   1.109       .  S
C1994      H2007   1.110       .  S
C1996      C1997   1.399       .  A
C1996      C2001   1.507       .  S
C1997      C1998   1.408       .  A
C1997      H2002   1.084       .  S
C1998      C1999   1.420       .  A
C1999      C2000   1.407       .  A
C1999      C2003   1.507   1_655  S
C2000      H2004   1.084       .  S
C2001      H2011   1.111       .  S
C2001      H2012   1.110       .  S
C2001      H2013   1.110       .  S
C2003      H2014   1.111       .  S
C2003      H2015   1.109       .  S
C2003      H2016   1.110       .  S
C2017      C2018   1.400       .  A
C2017      C2022   1.400       .  A
C2017      H2027   1.084       .  S
C2018      C2023   1.469       .  S
C2018      C2019   1.410       .  A
C2019      C2020   1.396   1_455  A
C2019      C2024   1.507   1_455  S
C2020      C2021   1.399   1_655  A
C2020      H2025   1.084       .  S
C2021      C2022   1.414       .  A
C2022      C2026   1.509       .  S
C2023      C2028   1.409       .  A
C2023      C2032   1.398       .  A
C2024      H2040   1.110       .  S
C2024      H2041   1.110       .  S
C2024      H2042   1.111       .  S
C2026      H2037   1.110       .  S
C2026      H2038   1.111       .  S
C2026      H2039   1.106       .  S
C2028      C2029   1.403       .  A
C2028      C2033   1.505       .  S
C2029      C2030   1.402       .  A
C2029      H2034   1.084       .  S
C2030      C2031   1.414       .  A
C2031      C2032   1.396       .  A
C2031      C2035   1.509       .  S
C2032      H2036   1.084       .  S
C2033      H2043   1.111       .  S
C2033      H2044   1.110       .  S
C2033      H2045   1.110       .  S
C2035      H2046   1.111       .  S
C2035      H2047   1.111       .  S
C2035      H2048   1.109       .  S
C2049      C2050   1.400   1_554  A
C2049      C2054   1.404       .  A
C2049      H2059   1.084   1_554  S
C2050      C2055   1.470       .  S
C2050      C2051   1.407   1_656  A
C2051      C2052   1.396       .  A
C2051      C2056   1.509       .  S
C2052      C2053   1.405   1_455  A
C2052      H2057   1.083       .  S
C2053      C2054   1.417       .  A
C2054      C2058   1.507       .  S
C2055      C2060   1.405   1_655  A
C2055      C2064   1.396       .  A
C2056      H2072   1.110   1_554  S
C2056      H2073   1.110   1_554  S
C2056      H2074   1.111       .  S
C2058      H2069   1.111       .  S
C2058      H2070   1.109       .  S
C2058      H2071   1.111       .  S
C2060      C2061   1.402       .  A
C2060      C2065   1.506   1_455  S
C2061      C2062   1.410       .  A
C2061      H2066   1.083       .  S
C2062      C2063   1.424       .  A
C2063      C2064   1.397   1_455  A
C2063      C2067   1.510       .  S
C2064      H2068   1.085       .  S
C2065      H2075   1.111   1_655  S
C2065      H2076   1.110       .  S
C2065      H2077   1.110   1_655  S
C2067      H2078   1.110   1_455  S
C2067      H2079   1.109       .  S
C2067      H2080   1.111       .  S
C2081      C2082   1.401       .  A
C2081      C2086   1.402   1_554  A
C2081      H2091   1.084   1_455  S
C2082      C2087   1.481       .  S
C2082      C2083   1.411       .  A
C2083      C2084   1.404   1_554  A
C2083      C2088   1.506       .  S
C2084      C2085   1.405       .  A
C2084      H2089   1.084       .  S
C2085      C2086   1.416       .  A
C2086      C2090   1.508   1_455  S
C2087      C2092   1.411       .  A
C2087      C2096   1.401       .  A
C2088      H2104   1.109       .  S
C2088      H2105   1.110       .  S
C2088      H2106   1.111       .  S
C2090      H2101   1.110   1_655  S
C2090      H2102   1.111       .  S
C2090      H2103   1.109       .  S
C2092      C2093   1.404       .  A
C2092      C2097   1.506       .  S
C2093      C2094   1.405   1_455  A
C2093      H2098   1.085       .  S
C2094      C2095   1.418   1_655  A
C2095      C2096   1.403       .  A
C2095      C2099   1.509   1_455  S
C2096      H2100   1.084       .  S
C2097      H2107   1.111       .  S
C2097      H2108   1.109       .  S
C2097      H2109   1.110       .  S
C2099      H2110   1.109       .  S
C2099      H2111   1.111   1_655  S
C2099      H2112   1.111       .  S
C2113      C2114   1.399       .  A
C2113      C2118   1.404       .  A
C2113      H2123   1.085       .  S
C2114      C2119   1.476       .  S
C2114      C2115   1.408       .  A
C2115      C2116   1.401       .  A
C2115      C2120   1.507   1_655  S
C2116      C2117   1.407       .  A
C2116      H2121   1.084       .  S
C2117      C2118   1.422       .  A
C2118      C2122   1.510       .  S
C2119      C2124   1.409       .  A
C2119      C2128   1.397   1_655  A
C2120      H2136   1.110       .  S
C2120      H2137   1.110       .  S
C2120      H2138   1.111       .  S
C2122      H2133   1.110       .  S
C2122      H2134   1.111       .  S
C2122      H2135   1.111       .  S
C2124      C2125   1.407       .  A
C2124      C2129   1.505       .  S
C2125      C2126   1.407   1_655  A
C2125      H2130   1.084       .  S
C2126      C2127   1.417       .  A
C2127      C2128   1.397       .  A
C2127      C2131   1.505       .  S
C2128      H2132   1.084       .  S
C2129      H2139   1.111       .  S
C2129      H2140   1.110       .  S
C2129      H2141   1.110       .  S
C2131      H2142   1.109       .  S
C2131      H2143   1.109       .  S
C2131      H2144   1.111       .  S
C2145      C2146   1.403       .  A
C2145      C2150   1.410       .  A
C2145      H2155   1.084       .  S
C2146      C2151   1.486       .  S
C2146      C2147   1.410       .  A
C2147      C2148   1.402       .  A
C2147      C2152   1.508       .  S
C2148      C2149   1.406       .  A
C2148      H2153   1.085       .  S
C2149      C2150   1.419       .  A
C2150      C2154   1.507       .  S
C2151      C2156   1.412       .  A
C2151      C2160   1.400       .  A
C2152      H2168   1.110       .  S
C2152      H2169   1.109       .  S
C2152      H2170   1.111       .  S
C2154      H2165   1.110       .  S
C2154      H2166   1.111       .  S
C2154      H2167   1.111       .  S
C2156      C2157   1.408       .  A
C2156      C2161   1.506       .  S
C2157      C2158   1.406       .  A
C2157      H2162   1.084       .  S
C2158      C2159   1.419       .  A
C2159      C2160   1.405       .  A
C2159      C2163   1.508       .  S
C2160      H2164   1.084       .  S
C2161      H2171   1.111       .  S
C2161      H2172   1.110       .  S
C2161      H2173   1.109       .  S
C2163      H2174   1.111       .  S
C2163      H2175   1.111       .  S
C2163      H2176   1.109       .  S
C2177      C2178   1.399       .  A
C2177      C2182   1.401       .  A
C2177      H2187   1.084       .  S
C2178      C2183   1.481       .  S
C2178      C2179   1.411       .  A
C2179      C2180   1.405       .  A
C2179      C2184   1.506       .  S
C2180      C2181   1.405       .  A
C2180      H2185   1.084       .  S
C2181      C2182   1.417       .  A
C2182      C2186   1.506       .  S
C2183      C2188   1.408       .  A
C2183      C2192   1.399       .  A
C2184      H2200   1.110       .  S
C2184      H2201   1.110       .  S
C2184      H2202   1.111       .  S
C2186      H2197   1.111       .  S
C2186      H2198   1.111       .  S
C2186      H2199   1.109       .  S
C2188      C2189   1.404       .  A
C2188      C2193   1.506       .  S
C2189      C2190   1.409       .  A
C2189      H2194   1.083   1_556  S
C2190      C2191   1.421       .  A
C2191      C2192   1.403       .  A
C2191      C2195   1.506       .  S
C2192      H2196   1.084       .  S
C2193      H2203   1.111   1_556  S
C2193      H2204   1.110       .  S
C2193      H2205   1.110   1_556  S
C2195      H2206   1.110       .  S
C2195      H2207   1.109       .  S
C2195      H2208   1.111       .  S
C2209      C2210   1.400       .  A
C2209      C2214   1.409       .  A
C2209      H2219   1.084       .  S
C2210      C2215   1.477       .  S
C2210      C2211   1.410       .  A
C2211      C2212   1.396       .  A
C2211      C2216   1.512       .  S
C2212      C2213   1.407       .  A
C2212      H2217   1.079       .  S
C2213      C2214   1.424       .  A
C2214      C2218   1.507       .  S
C2215      C2220   1.407       .  A
C2215      C2224   1.398       .  A
C2216      H2232   1.110       .  S
C2216      H2233   1.108       .  S
C2216      H2234   1.111       .  S
C2218      H2229   1.111       .  S
C2218      H2230   1.110       .  S
C2218      H2231   1.110       .  S
C2220      C2221   1.404       .  A
C2220      C2225   1.506       .  S
C2221      C2222   1.410       .  A
C2221      H2226   1.084       .  S
C2222      C2223   1.422       .  A
C2223      C2224   1.401       .  A
C2223      C2227   1.510       .  S
C2224      H2228   1.085       .  S
C2225      H2235   1.111       .  S
C2225      H2236   1.110       .  S
C2225      H2237   1.109       .  S
C2227      H2238   1.111       .  S
C2227      H2239   1.111       .  S
C2227      H2240   1.109       .  S
C2241      C2242   1.404       .  A
C2241      C2246   1.411       .  A
C2241      H2251   1.084       .  S
C2242      C2247   1.486       .  S
C2242      C2243   1.410       .  A
C2243      C2244   1.398       .  A
C2243      C2248   1.510       .  S
C2244      C2245   1.403       .  A
C2244      H2249   1.075       .  S
C2245      C2246   1.421       .  A
C2246      C2250   1.507       .  S
C2247      C2252   1.412       .  A
C2247      C2256   1.403       .  A
C2248      H2264   1.109       .  S
C2248      H2265   1.111       .  S
C2248      H2266   1.111       .  S
C2250      H2261   1.111       .  S
C2250      H2262   1.110       .  S
C2250      H2263   1.103       .  S
C2252      C2253   1.403       .  A
C2252      C2257   1.508       .  S
C2253      C2254   1.404       .  A
C2253      H2258   1.085       .  S
C2254      C2255   1.416       .  A
C2255      C2256   1.406       .  A
C2255      C2259   1.507       .  S
C2256      H2260   1.084       .  S
C2257      H2267   1.111       .  S
C2257      H2268   1.110       .  S
C2257      H2269   1.110       .  S
C2259      H2270   1.110       .  S
C2259      H2271   1.105       .  S
C2259      H2272   1.111       .  S
C2273      C2274   1.399       .  A
C2273      C2278   1.405       .  A
C2273      H2283   1.084       .  S
C2274      C2279   1.481       .  S
C2274      C2275   1.408       .  A
C2275      C2276   1.402       .  A
C2275      C2280   1.507       .  S
C2276      C2277   1.411       .  A
C2276      H2281   1.083       .  S
C2277      C2278   1.422       .  A
C2278      C2282   1.508       .  S
C2279      C2284   1.410       .  A
C2279      C2288   1.402       .  A
C2280      H2296   1.110       .  S
C2280      H2297   1.110       .  S
C2280      H2298   1.111       .  S
C2282      H2293   1.111       .  S
C2282      H2294   1.109       .  S
C2282      H2295   1.110       .  S
C2284      C2285   1.402       .  A
C2284      C2289   1.507       .  S
C2285      C2286   1.405       .  A
C2285      H2290   1.084       .  S
C2286      C2287   1.417       .  A
C2287      C2288   1.404       .  A
C2287      C2291   1.510       .  S
C2288      H2292   1.085       .  S
C2289      H2299   1.111       .  S
C2289      H2300   1.110       .  S
C2289      H2301   1.110       .  S
C2291      H2302   1.110       .  S
C2291      H2303   1.106       .  S
C2291      H2304   1.111       .  S
C2305      C2306   1.401       .  A
C2305      C2310   1.403       .  A
C2305      H2315   1.084       .  S
C2306      C2311   1.483       .  S
C2306      C2307   1.410       .  A
C2307      C2308   1.405       .  A
C2307      C2312   1.506       .  S
C2308      C2309   1.405       .  A
C2308      H2313   1.084       .  S
C2309      C2310   1.417       .  A
C2310      C2314   1.509       .  S
C2311      C2316   1.412       .  A
C2311      C2320   1.400       .  A
C2312      H2328   1.110       .  S
C2312      H2329   1.110       .  S
C2312      H2330   1.111       .  S
C2314      H2325   1.111       .  S
C2314      H2326   1.110       .  S
C2314      H2327   1.105       .  S
C2316      C2317   1.405       .  A
C2316      C2321   1.507       .  S
C2317      C2318   1.405       .  A
C2317      H2322   1.085       .  S
C2318      C2319   1.418       .  A
C2319      C2320   1.405       .  A
C2319      C2323   1.508       .  S
C2320      H2324   1.084       .  S
C2321      H2331   1.111       .  S
C2321      H2332   1.110       .  S
C2321      H2333   1.110       .  S
C2323      H2334   1.111       .  S
C2323      H2335   1.111       .  S
C2323      H2336   1.109       .  S
C2337      C2338   1.403       .  A
C2337      C2342   1.400       .  A
C2337      H2347   1.085       .  S
C2338      C2343   1.479       .  S
C2338      C2339   1.411       .  A
C2339      C2340   1.403       .  A
C2339      C2344   1.506       .  S
C2340      C2341   1.404       .  A
C2340      H2345   1.084       .  S
C2341      C2342   1.413       .  A
C2342      C2346   1.509       .  S
C2343      C2348   1.411       .  A
C2343      C2352   1.402       .  A
C2344      H2360   1.109       .  S
C2344      H2361   1.110       .  S
C2344      H2362   1.111       .  S
C2346      H2357   1.110       .  S
C2346      H2358   1.108       .  S
C2346      H2359   1.111       .  S
C2348      C2349   1.404       .  A
C2348      C2353   1.506       .  S
C2349      C2350   1.403       .  A
C2349      H2354   1.084       .  S
C2350      C2351   1.412       .  A
C2351      C2352   1.399       .  A
C2351      C2355   1.507       .  S
C2352      H2356   1.085       .  S
C2353      H2363   1.111       .  S
C2353      H2364   1.109       .  S
C2353      H2365   1.110       .  S
C2355      H2366   1.110       .  S
C2355      H2367   1.108       .  S
C2355      H2368   1.111       .  S
C2369      C2370   1.402       .  A
C2369      C2374   1.403       .  A
C2369      H2379   1.085       .  S
C2370      C2375   1.476       .  S
C2370      C2371   1.408       .  A
C2371      C2372   1.401       .  A
C2371      C2376   1.507       .  S
C2372      C2373   1.403       .  A
C2372      H2377   1.084       .  S
C2373      C2374   1.415       .  A
C2374      C2378   1.508       .  S
C2375      C2380   1.409       .  A
C2375      C2384   1.400       .  A
C2376      H2392   1.110       .  S
C2376      H2393   1.110       .  S
C2376      H2394   1.111       .  S
C2378      H2389   1.110       .  S
C2378      H2390   1.111       .  S
C2378      H2391   1.107       .  S
C2380      C2381   1.403       .  A
C2380      C2385   1.506       .  S
C2381      C2382   1.405       .  A
C2381      H2386   1.084       .  S
C2382      C2383   1.417       .  A
C2383      C2384   1.400       .  A
C2383      C2387   1.509       .  S
C2384      H2388   1.085       .  S
C2385      H2395   1.111       .  S
C2385      H2396   1.110       .  S
C2385      H2397   1.110       .  S
C2387      H2398   1.111       .  S
C2387      H2399   1.104       .  S
C2387      H2400   1.110       .  S
C2401      C2402   1.399       .  A
C2401      C2406   1.403       .  A
C2401      H2411   1.083       .  S
C2402      C2407   1.480       .  S
C2402      C2403   1.409       .  A
C2403      C2404   1.404       .  A
C2403      C2408   1.506       .  S
C2404      C2405   1.408       .  A
C2404      H2409   1.084       .  S
C2405      C2406   1.420       .  A
C2406      C2410   1.508       .  S
C2407      C2412   1.408       .  A
C2407      C2416   1.400       .  A
C2408      H2424   1.110       .  S
C2408      H2425   1.109       .  S
C2408      H2426   1.111       .  S
C2410      H2421   1.109       .  S
C2410      H2422   1.111       .  S
C2410      H2423   1.111       .  S
C2412      C2413   1.401       .  A
C2412      C2417   1.509       .  S
C2413      C2414   1.410       .  A
C2413      H2418   1.084       .  S
C2414      C2415   1.421       .  A
C2415      C2416   1.407       .  A
C2415      C2419   1.507       .  S
C2416      H2420   1.084       .  S
C2417      H2427   1.111       .  S
C2417      H2428   1.110       .  S
C2417      H2429   1.109       .  S
C2419      H2430   1.111       .  S
C2419      H2431   1.110       .  S
C2419      H2432   1.111       .  S
C2433      C2434   1.404       .  A
C2433      C2438   1.404       .  A
C2433      H2443   1.084       .  S
C2434      C2439   1.481       .  S
C2434      C2435   1.412       .  A
C2435      C2436   1.400       .  A
C2435      C2440   1.508       .  S
C2436      C2437   1.402       .  A
C2436      H2441   1.084       .  S
C2437      C2438   1.413       .  A
C2438      C2442   1.508       .  S
C2439      C2444   1.410       .  A
C2439      C2448   1.401       .  A
C2440      H2456   1.109       .  S
C2440      H2457   1.111       .  S
C2440      H2458   1.111       .  S
C2442      H2453   1.110       .  S
C2442      H2454   1.110       .  S
C2442      H2455   1.108       .  S
C2444      C2445   1.402       .  A
C2444      C2449   1.507       .  S
C2445      C2446   1.405       .  A
C2445      H2450   1.080       .  S
C2446      C2447   1.418       .  A
C2447      C2448   1.403       .  A
C2447      C2451   1.508       .  S
C2448      H2452   1.084       .  S
C2449      H2459   1.111       .  S
C2449      H2460   1.109       .  S
C2449      H2461   1.110       .  S
C2451      H2462   1.111       .  S
C2451      H2463   1.110       .  S
C2451      H2464   1.110       .  S
C2465      C2466   1.400       .  A
C2465      C2470   1.406       .  A
C2465      H2475   1.084       .  S
C2466      C2471   1.474       .  S
C2466      C2467   1.411       .  A
C2467      C2468   1.395       .  A
C2467      C2472   1.512       .  S
C2468      C2469   1.406       .  A
C2468      H2473   1.084       .  S
C2469      C2470   1.423       .  A
C2470      C2474   1.508   1_556  S
C2471      C2476   1.407       .  A
C2471      C2480   1.397       .  A
C2472      H2488   1.111       .  S
C2472      H2489   1.107       .  S
C2472      H2490   1.111       .  S
C2474      H2485   1.111       .  S
C2474      H2486   1.111       .  S
C2474      H2487   1.110       .  S
C2476      C2477   1.403       .  A
C2476      C2481   1.507       .  S
C2477      C2478   1.409       .  A
C2477      H2482   1.084       .  S
C2478      C2479   1.422       .  A
C2479      C2480   1.398       .  A
C2479      C2483   1.511       .  S
C2480      H2484   1.085       .  S
C2481      H2491   1.111       .  S
C2481      H2492   1.110       .  S
C2481      H2493   1.108       .  S
C2483      H2494   1.111       .  S
C2483      H2495   1.111       .  S
C2483      H2496   1.109       .  S
C2497      C2498   1.399       .  A
C2497      C2502   1.403       .  A
C2497      H2507   1.084       .  S
C2498      C2503   1.482       .  S
C2498      C2499   1.411       .  A
C2499      C2500   1.405       .  A
C2499      C2504   1.505       .  S
C2500      C2501   1.405       .  A
C2500      H2505   1.084       .  S
C2501      C2502   1.417       .  A
C2502      C2506   1.505       .  S
C2503      C2508   1.408       .  A
C2503      C2512   1.401       .  A
C2504      H2520   1.110       .  S
C2504      H2521   1.110       .  S
C2504      H2522   1.111       .  S
C2506      H2517   1.108       .  S
C2506      H2518   1.111       .  S
C2506      H2519   1.108       .  S
C2508      C2509   1.403       .  A
C2508      C2513   1.506       .  S
C2509      C2510   1.410       .  A
C2509      H2514   1.084       .  S
C2510      C2511   1.420       .  A
C2511      C2512   1.406       .  A
C2511      C2515   1.508       .  S
C2512      H2516   1.085       .  S
C2513      H2523   1.111       .  S
C2513      H2524   1.110       .  S
C2513      H2525   1.110       .  S
C2515      H2526   1.110       .  S
C2515      H2527   1.109       .  S
C2515      H2528   1.111       .  S
C2529      C2530   1.399       .  A
C2529      C2534   1.405       .  A
C2529      H2539   1.083       .  S
C2530      C2535   1.477       .  S
C2530      C2531   1.409       .  A
C2531      C2532   1.402       .  A
C2531      C2536   1.507       .  S
C2532      C2533   1.405       .  A
C2532      H2537   1.084       .  S
C2533      C2534   1.419       .  A
C2534      C2538   1.508       .  S
C2535      C2540   1.410       .  A
C2535      C2544   1.399       .  A
C2536      H2552   1.110       .  S
C2536      H2553   1.110       .  S
C2536      H2554   1.111       .  S
C2538      H2549   1.109       .  S
C2538      H2550   1.111       .  S
C2538      H2551   1.111       .  S
C2540      C2541   1.401       .  A
C2540      C2545   1.507       .  S
C2541      C2542   1.404       .  A
C2541      H2546   1.085       .  S
C2542      C2543   1.418       .  A
C2543      C2544   1.402       .  A
C2543      C2547   1.508       .  S
C2544      H2548   1.085       .  S
C2545      H2555   1.111       .  S
C2545      H2556   1.110       .  S
C2545      H2557   1.110       .  S
C2547      H2558   1.110       .  S
C2547      H2559   1.105       .  S
C2547      H2560   1.111       .  S
C2561      C2562   1.397       .  A
C2561      C2566   1.397       .  A
C2561      H2571   1.085       .  S
C2562      C2567   1.471       .  S
C2562      C2563   1.407       .  A
C2563      C2564   1.403       .  A
C2563      C2568   1.505       .  S
C2564      C2565   1.406       .  A
C2564      H2569   1.084       .  S
C2565      C2566   1.419       .  A
C2566      C2570   1.510       .  S
C2567      C2572   1.408       .  A
C2567      C2576   1.399       .  A
C2568      H2584   1.110       .  S
C2568      H2585   1.110       .  S
C2568      H2586   1.111       .  S
C2570      H2581   1.111       .  S
C2570      H2582   1.110       .  S
C2570      H2583   1.110       .  S
C2572      C2573   1.400       .  A
C2572      C2577   1.507       .  S
C2573      C2574   1.404       .  A
C2573      H2578   1.084       .  S
C2574      C2575   1.416       .  A
C2575      C2576   1.400       .  A
C2575      C2579   1.508       .  S
C2576      H2580   1.084       .  S
C2577      H2587   1.111       .  S
C2577      H2588   1.110       .  S
C2577      H2589   1.110       .  S
C2579      H2590   1.109       .  S
C2579      H2591   1.111       .  S
C2579      H2592   1.111       .  S
C2593      C2594   1.402       .  A
C2593      C2598   1.406       .  A
C2593      H2603   1.084       .  S
C2594      C2599   1.483       .  S
C2594      C2595   1.411       .  A
C2595      C2596   1.403       .  A
C2595      C2600   1.507       .  S
C2596      C2597   1.405       .  A
C2596      H2601   1.084       .  S
C2597      C2598   1.417       .  A
C2598      C2602   1.508       .  S
C2599      C2604   1.412       .  A
C2599      C2608   1.400       .  A
C2600      H2616   1.110       .  S
C2600      H2617   1.110       .  S
C2600      H2618   1.111       .  S
C2602      H2613   1.110       .  S
C2602      H2614   1.111       .  S
C2602      H2615   1.111       .  S
C2604      C2605   1.407       .  A
C2604      C2609   1.505       .  S
C2605      C2606   1.404       .  A
C2605      H2610   1.084       .  S
C2606      C2607   1.418       .  A
C2607      C2608   1.401       .  A
C2607      C2611   1.508       .  S
C2608      H2612   1.085       .  S
C2609      H2619   1.111       .  S
C2609      H2620   1.110       .  S
C2609      H2621   1.110       .  S
C2611      H2622   1.111       .  S
C2611      H2623   1.104       .  S
C2611      H2624   1.110       .  S
C2625      C2626   1.399       .  A
C2625      C2630   1.399       .  A
C2625      H2635   1.084       .  S
C2626      C2631   1.471       .  S
C2626      C2627   1.408       .  A
C2627      C2628   1.400       .  A
C2627      C2632   1.506       .  S
C2628      C2629   1.405       .  A
C2628      H2633   1.084       .  S
C2629      C2630   1.416       .  A
C2630      C2634   1.508       .  S
C2631      C2636   1.408       .  A
C2631      C2640   1.398       .  A
C2632      H2648   1.110       .  S
C2632      H2649   1.110       .  S
C2632      H2650   1.111       .  S
C2634      H2645   1.111       .  S
C2634      H2646   1.109       .  S
C2634      H2647   1.110       .  S
C2636      C2637   1.402       .  A
C2636      C2641   1.506       .  S
C2637      C2638   1.405       .  A
C2637      H2642   1.083       .  S
C2638      C2639   1.418       .  A
C2639      C2640   1.397       .  A
C2639      C2643   1.509       .  S
C2640      H2644   1.085       .  S
C2641      H2651   1.111       .  S
C2641      H2652   1.110       .  S
C2641      H2653   1.110       .  S
C2643      H2654   1.108       .  S
C2643      H2655   1.111       .  S
C2643      H2656   1.111       .  S
C2657      C2658   1.396       .  A
C2657      C2662   1.402       .  A
C2657      H2667   1.084       .  S
C2658      C2663   1.475       .  S
C2658      C2659   1.407       .  A
C2659      C2660   1.402       .  A
C2659      C2664   1.506       .  S
C2660      C2661   1.410       .  A
C2660      H2665   1.084       .  S
C2661      C2662   1.424       .  A
C2662      C2666   1.509       .  S
C2663      C2668   1.408       .  A
C2663      C2672   1.400       .  A
C2664      H2680   1.110       .  S
C2664      H2681   1.110       .  S
C2664      H2682   1.111       .  S
C2666      H2677   1.111       .  S
C2666      H2678   1.110       .  S
C2666      H2679   1.110       .  S
C2668      C2669   1.397       .  A
C2668      C2673   1.509       .  S
C2669      C2670   1.406       .  A
C2669      H2674   1.083       .  S
C2670      C2671   1.420       .  A
C2671      C2672   1.406       .  A
C2671      C2675   1.507       .  S
C2672      H2676   1.084       .  S
C2673      H2683   1.111       .  S
C2673      H2684   1.110       .  S
C2673      H2685   1.110       .  S
C2675      H2686   1.110       .  S
C2675      H2687   1.111       .  S
C2675      H2688   1.111       .  S
C2689      C2690   1.403   1_556  A
C2689      C2694   1.408       .  A
C2689      H2699   1.084       .  S
C2690      C2695   1.485       .  S
C2690      C2691   1.411       .  A
C2691      C2692   1.402       .  A
C2691      C2696   1.507       .  S
C2692      C2693   1.403   1_554  A
C2692      H2697   1.085       .  S
C2693      C2694   1.418       .  A
C2694      C2698   1.507       .  S
C2695      C2700   1.411   1_554  A
C2695      C2704   1.403       .  A
C2696      H2712   1.110       .  S
C2696      H2713   1.110       .  S
C2696      H2714   1.111       .  S
C2698      H2709   1.111       .  S
C2698      H2710   1.110       .  S
C2698      H2711   1.107       .  S
C2700      C2701   1.403   1_556  A
C2700      C2705   1.507       .  S
C2701      C2702   1.404       .  A
C2701      H2706   1.085   1_554  S
C2702      C2703   1.416       .  A
C2703      C2704   1.407       .  A
C2703      C2707   1.507       .  S
C2704      H2708   1.084       .  S
C2705      H2715   1.111       .  S
C2705      H2716   1.110       .  S
C2705      H2717   1.110       .  S
C2707      H2718   1.110       .  S
C2707      H2719   1.107       .  S
C2707      H2720   1.111       .  S
C2721      C2722   1.402       .  A
C2721      C2726   1.404       .  A
C2721      H2731   1.084       .  S
C2722      C2727   1.483       .  S
C2722      C2723   1.412       .  A
C2723      C2724   1.403       .  A
C2723      C2728   1.506       .  S
C2724      C2725   1.403       .  A
C2724      H2729   1.084       .  S
C2725      C2726   1.414       .  A
C2726      C2730   1.507       .  S
C2727      C2732   1.410       .  A
C2727      C2736   1.404       .  A
C2728      H2744   1.110       .  S
C2728      H2745   1.110       .  S
C2728      H2746   1.111       .  S
C2730      H2741   1.109       .  S
C2730      H2742   1.111       .  S
C2730      H2743   1.111       .  S
C2732      C2733   1.400       .  A
C2732      C2737   1.508       .  S
C2733      C2734   1.404       .  A
C2733      H2738   1.085       .  S
C2734      C2735   1.416       .  A
C2735      C2736   1.406       .  A
C2735      C2739   1.508       .  S
C2736      H2740   1.084       .  S
C2737      H2747   1.111       .  S
C2737      H2748   1.109       .  S
C2737      H2749   1.110       .  S
C2739      H2750   1.111       .  S
C2739      H2751   1.108       .  S
C2739      H2752   1.110       .  S
C2753      C2754   1.401       .  A
C2753      C2758   1.404       .  A
C2753      H2763   1.085       .  S
C2754      C2759   1.479       .  S
C2754      C2755   1.408       .  A
C2755      C2756   1.401       .  A
C2755      C2760   1.507       .  S
C2756      C2757   1.406       .  A
C2756      H2761   1.084       .  S
C2757      C2758   1.419       .  A
C2758      C2762   1.510       .  S
C2759      C2764   1.410       .  A
C2759      C2768   1.400       .  A
C2760      H2776   1.110       .  S
C2760      H2777   1.110       .  S
C2760      H2778   1.111       .  S
C2762      H2773   1.110       .  S
C2762      H2774   1.111       .  S
C2762      H2775   1.106       .  S
C2764      C2765   1.403       .  A
C2764      C2769   1.506       .  S
C2765      C2766   1.404       .  A
C2765      H2770   1.084       .  S
C2766      C2767   1.418       .  A
C2767      C2768   1.403       .  A
C2767      C2771   1.507       .  S
C2768      H2772   1.084       .  S
C2769      H2779   1.111       .  S
C2769      H2780   1.110       .  S
C2769      H2781   1.110       .  S
C2771      H2782   1.110       .  S
C2771      H2783   1.104       .  S
C2771      H2784   1.111       .  S
C2785      C2786   1.399       .  A
C2785      C2790   1.401       .  A
C2785      H2795   1.084       .  S
C2786      C2791   1.475       .  S
C2786      C2787   1.406       .  A
C2787      C2788   1.402       .  A
C2787      C2792   1.507       .  S
C2788      C2789   1.410       .  A
C2788      H2793   1.084       .  S
C2789      C2790   1.419       .  A
C2790      C2794   1.509       .  S
C2791      C2796   1.410       .  A
C2791      C2800   1.400       .  A
C2792      H2808   1.110       .  S
C2792      H2809   1.109       .  S
C2792      H2810   1.111       .  S
C2794      H2805   1.108       .  S
C2794      H2806   1.111       .  S
C2794      H2807   1.111       .  S
C2796      C2797   1.394       .  A
C2796      C2801   1.511       .  S
C2797      C2798   1.408       .  A
C2797      H2802   1.084       .  S
C2798      C2799   1.421       .  A
C2799      C2800   1.408       .  A
C2799      C2803   1.507       .  S
C2800      H2804   1.084       .  S
C2801      H2811   1.111       .  S
C2801      H2812   1.110       .  S
C2801      H2813   1.108       .  S
C2803      H2814   1.109       .  S
C2803      H2815   1.111       .  S
C2803      H2816   1.111       .  S
C2817      C2818   1.403       .  A
C2817      C2822   1.406       .  A
C2817      H2827   1.084       .  S
C2818      C2823   1.482       .  S
C2818      C2819   1.409       .  A
C2819      C2820   1.401       .  A
C2819      C2824   1.507       .  S
C2820      C2821   1.405       .  A
C2820      H2825   1.084       .  S
C2821      C2822   1.417       .  A
C2822      C2826   1.507       .  S
C2823      C2828   1.409       .  A
C2823      C2832   1.399       .  A
C2824      H2840   1.110       .  S
C2824      H2841   1.110       .  S
C2824      H2842   1.111       .  S
C2826      H2837   1.110       .  S
C2826      H2838   1.111       .  S
C2826      H2839   1.105       .  S
C2828      C2829   1.404       .  A
C2828      C2833   1.506       .  S
C2829      C2830   1.408       .  A
C2829      H2834   1.084       .  S
C2830      C2831   1.421       .  A
C2831      C2832   1.404       .  A
C2831      C2835   1.509       .  S
C2832      H2836   1.085       .  S
C2833      H2843   1.111       .  S
C2833      H2844   1.110       .  S
C2833      H2845   1.110       .  S
C2835      H2846   1.109       .  S
C2835      H2847   1.111       .  S
C2835      H2848   1.111       .  S
C2849      C2850   1.401       .  A
C2849      C2854   1.399       .  A
C2849      H2859   1.085       .  S
C2850      C2855   1.478       .  S
C2850      C2851   1.411       .  A
C2851      C2852   1.405       .  A
C2851      C2856   1.506       .  S
C2852      C2853   1.403       .  A
C2852      H2857   1.084       .  S
C2853      C2854   1.412       .  A
C2854      C2858   1.507       .  S
C2855      C2860   1.410       .  A
C2855      C2864   1.399       .  A
C2856      H2872   1.110       .  S
C2856      H2873   1.109       .  S
C2856      H2874   1.111       .  S
C2858      H2869   1.110       .  S
C2858      H2870   1.110       .  S
C2858      H2871   1.108       .  S
C2860      C2861   1.398       .  A
C2860      C2865   1.510       .  S
C2861      C2862   1.407       .  A
C2861      H2866   1.083       .  S
C2862      C2863   1.425       .  A
C2863      C2864   1.408       .  A
C2863      C2867   1.508       .  S
C2864      H2868   1.084       .  S
C2865      H2875   1.111       .  S
C2865      H2876   1.110       .  S
C2865      H2877   1.109       .  S
C2867      H2878   1.108       .  S
C2867      H2879   1.111       .  S
C2867      H2880   1.111       .  S
C2881      C2882   1.401       .  A
C2881      C2886   1.405       .  A
C2881      H2891   1.084       .  S
C2882      C2887   1.480       .  S
C2882      C2883   1.411       .  A
C2883      C2884   1.402       .  A
C2883      C2888   1.507       .  S
C2884      C2885   1.402       .  A
C2884      H2889   1.084       .  S
C2885      C2886   1.419       .  A
C2886      C2890   1.510       .  S
C2887      C2892   1.410       .  A
C2887      C2896   1.398       .  A
C2888      H2904   1.110       .  S
C2888      H2905   1.110       .  S
C2888      H2906   1.111       .  S
C2890      H2901   1.110       .  S
C2890      H2902   1.110       .  S
C2890      H2903   1.105       .  S
C2892      C2893   1.410       .  A
C2892      C2897   1.505       .  S
C2893      C2894   1.408       .  A
C2893      H2898   1.084       .  S
C2894      C2895   1.418       .  A
C2895      C2896   1.398       .  A
C2895      C2899   1.509       .  S
C2896      H2900   1.085       .  S
C2897      H2907   1.111       .  S
C2897      H2908   1.110       .  S
C2897      H2909   1.110       .  S
C2899      H2910   1.111       .  S
C2899      H2911   1.110       .  S
C2899      H2912   1.109       .  S
C2913      C2914   1.400       .  A
C2913      C2918   1.403       .  A
C2913      H2923   1.085       .  S
C2914      C2919   1.474       .  S
C2914      C2915   1.408       .  A
C2915      C2916   1.399       .  A
C2915      C2920   1.508       .  S
C2916      C2917   1.406       .  A
C2916      H2921   1.084       .  S
C2917      C2918   1.419       .  A
C2918      C2922   1.508       .  S
C2919      C2924   1.408       .  A
C2919      C2928   1.398       .  A
C2920      H2936   1.110       .  S
C2920      H2937   1.109       .  S
C2920      H2938   1.111       .  S
C2922      H2933   1.111       .  S
C2922      H2934   1.110       .  S
C2922      H2935   1.104       .  S
C2924      C2925   1.402       .  A
C2924      C2929   1.507       .  S
C2925      C2926   1.406       .  A
C2925      H2930   1.084   1_556  S
C2926      C2927   1.419       .  A
C2927      C2928   1.401       .  A
C2927      C2931   1.509       .  S
C2928      H2932   1.085       .  S
C2929      H2939   1.111   1_556  S
C2929      H2940   1.110   1_556  S
C2929      H2941   1.109       .  S
C2931      H2942   1.111       .  S
C2931      H2943   1.109       .  S
C2931      H2944   1.109       .  S
C2945      C2946   1.404       .  A
C2945      C2950   1.410       .  A
C2945      H2955   1.084       .  S
C2946      C2951   1.483       .  S
C2946      C2947   1.412       .  A
C2947      C2948   1.398       .  A
C2947      C2952   1.511       .  S
C2948      C2949   1.405       .  A
C2948      H2953   1.085       .  S
C2949      C2950   1.420       .  A
C2950      C2954   1.509       .  S
C2951      C2956   1.414       .  A
C2951      C2960   1.399       .  A
C2952      H2968   1.110       .  S
C2952      H2969   1.107       .  S
C2952      H2970   1.111       .  S
C2954      H2965   1.110       .  S
C2954      H2966   1.111       .  S
C2954      H2967   1.104       .  S
C2956      C2957   1.408       .  A
C2956      C2961   1.506       .  S
C2957      C2958   1.403       .  A
C2957      H2962   1.084       .  S
C2958      C2959   1.416       .  A
C2959      C2960   1.399       .  A
C2959      C2963   1.510       .  S
C2960      H2964   1.085       .  S
C2961      H2971   1.111       .  S
C2961      H2972   1.110       .  S
C2961      H2973   1.108       .  S
C2963      H2974   1.111       .  S
C2963      H2975   1.110       .  S
C2963      H2976   1.109       .  S
C2977      C2978   1.402       .  A
C2977      C2982   1.405       .  A
C2977      H2987   1.085       .  S
C2978      C2983   1.484       .  S
C2978      C2979   1.411       .  A
C2979      C2980   1.404       .  A
C2979      C2984   1.506       .  S
C2980      C2981   1.405       .  A
C2980      H2985   1.085       .  S
C2981      C2982   1.417       .  A
C2982      C2986   1.508       .  S
C2983      C2988   1.412       .  A
C2983      C2992   1.398       .  A
C2984      H3000   1.110       .  S
C2984      H3001   1.110       .  S
C2984      H3002   1.111       .  S
C2986      H2997   1.111       .  S
C2986      H2998   1.110       .  S
C2986      H2999   1.106       .  S
C2988      C2989   1.409       .  A
C2988      C2993   1.505       .  S
C2989      C2990   1.406       .  A
C2989      H2994   1.084       .  S
C2990      C2991   1.421       .  A
C2991      C2992   1.402       .  A
C2991      C2995   1.510   1_556  S
C2992      H2996   1.085       .  S
C2993      H3003   1.111       .  S
C2993      H3004   1.110       .  S
C2993      H3005   1.110       .  S
C2995      H3006   1.111       .  S
C2995      H3007   1.110       .  S
C2995      H3008   1.109       .  S
C3009      C3010   1.399       .  A
C3009      C3014   1.402   1_554  A
C3009      H3019   1.085       .  S
C3010      C3015   1.470       .  S
C3010      C3011   1.409       .  A
C3011      C3012   1.396   1_554  A
C3011      C3016   1.508       .  S
C3012      C3013   1.403       .  A
C3012      H3017   1.083       .  S
C3013      C3014   1.416       .  A
C3014      C3018   1.508       .  S
C3015      C3020   1.409       .  A
C3015      C3024   1.400       .  A
C3016      H3032   1.110       .  S
C3016      H3033   1.110       .  S
C3016      H3034   1.111       .  S
C3018      H3029   1.110       .  S
C3018      H3030   1.111       .  S
C3018      H3031   1.107       .  S
C3020      C3021   1.396       .  A
C3020      C3025   1.508       .  S
C3021      C3022   1.401       .  A
C3021      H3026   1.085       .  S
C3022      C3023   1.416       .  A
C3023      C3024   1.402       .  A
C3023      C3027   1.508       .  S
C3024      H3028   1.084       .  S
C3025      H3035   1.111       .  S
C3025      H3036   1.110       .  S
C3025      H3037   1.110       .  S
C3027      H3038   1.110       .  S
C3027      H3039   1.105       .  S
C3027      H3040   1.111       .  S
C3041      C3042   1.402       .  A
C3041      C3046   1.400       .  A
C3041      H3051   1.085       .  S
C3042      C3047   1.474       .  S
C3042      C3043   1.409       .  A
C3043      C3044   1.399       .  A
C3043      C3048   1.507       .  S
C3044      C3045   1.403       .  A
C3044      H3049   1.085       .  S
C3045      C3046   1.415       .  A
C3046      C3050   1.510       .  S
C3047      C3052   1.411       .  A
C3047      C3056   1.403       .  A
C3048      H3064   1.109       .  S
C3048      H3065   1.110       .  S
C3048      H3066   1.111       .  S
C3050      H3061   1.110       .  S
C3050      H3062   1.111       .  S
C3050      H3063   1.107       .  S
C3052      C3053   1.396       .  A
C3052      C3057   1.508       .  S
C3053      C3054   1.401       .  A
C3053      H3058   1.085       .  S
C3054      C3055   1.412       .  A
C3055      C3056   1.402       .  A
C3055      C3059   1.507       .  S
C3056      H3060   1.084       .  S
C3057      H3067   1.111       .  S
C3057      H3068   1.109       .  S
C3057      H3069   1.110       .  S
C3059      H3070   1.110       .  S
C3059      H3071   1.108       .  S
C3059      H3072   1.110       .  S
C3073      C3074   1.399       .  A
C3073      C3078   1.403       .  A
C3073      H3083   1.085       .  S
C3074      C3079   1.480       .  S
C3074      C3075   1.411       .  A
C3075      C3076   1.401       .  A
C3075      C3080   1.507       .  S
C3076      C3077   1.405       .  A
C3076      H3081   1.084       .  S
C3077      C3078   1.422       .  A
C3078      C3082   1.509       .  S
C3079      C3084   1.411       .  A
C3079      C3088   1.398       .  A
C3080      H3096   1.109       .  S
C3080      H3097   1.110       .  S
C3080      H3098   1.111       .  S
C3082      H3093   1.109       .  S
C3082      H3094   1.111       .  S
C3082      H3095   1.111       .  S
C3084      C3085   1.404       .  A
C3084      C3089   1.506       .  S
C3085      C3086   1.405       .  A
C3085      H3090   1.084       .  S
C3086      C3087   1.420       .  A
C3087      C3088   1.400       .  A
C3087      C3091   1.509       .  S
C3088      H3092   1.084       .  S
C3089      H3099   1.111       .  S
C3089      H3100   1.110       .  S
C3089      H3101   1.110       .  S
C3091      H3102   1.110       .  S
C3091      H3103   1.101       .  S
C3091      H3104   1.111       .  S
C3105      C3106   1.399       .  A
C3105      C3110   1.402       .  A
C3105      H3115   1.084       .  S
C3106      C3111   1.473       .  S
C3106      C3107   1.409       .  A
C3107      C3108   1.399       .  A
C3107      C3112   1.508       .  S
C3108      C3109   1.404       .  A
C3108      H3113   1.084       .  S
C3109      C3110   1.419       .  A
C3110      C3114   1.508       .  S
C3111      C3116   1.408       .  A
C3111      C3120   1.398       .  A
C3112      H3128   1.110       .  S
C3112      H3129   1.110       .  S
C3112      H3130   1.111       .  S
C3114      H3125   1.111       .  S
C3114      H3126   1.110       .  S
C3114      H3127   1.107       .  S
C3116      C3117   1.403       .  A
C3116      C3121   1.506       .  S
C3117      C3118   1.405       .  A
C3117      H3122   1.084       .  S
C3118      C3119   1.417       .  A
C3119      C3120   1.398       .  A
C3119      C3123   1.509       .  S
C3120      H3124   1.084       .  S
C3121      H3131   1.111       .  S
C3121      H3132   1.110       .  S
C3121      H3133   1.111       .  S
C3123      H3134   1.109       .  S
C3123      H3135   1.108       .  S
C3123      H3136   1.111       .  S
C3137      C3138   1.399       .  A
C3137      C3142   1.402       .  A
C3137      H3147   1.085       .  S
C3138      C3143   1.471       .  S
C3138      C3139   1.407       .  A
C3139      C3140   1.399       .  A
C3139      C3144   1.507       .  S
C3140      C3141   1.406       .  A
C3140      H3145   1.084       .  S
C3141      C3142   1.419       .  A
C3142      C3146   1.509       .  S
C3143      C3148   1.408   1_556  A
C3143      C3152   1.402   1_556  A
C3144      H3160   1.110       .  S
C3144      H3161   1.110       .  S
C3144      H3162   1.111       .  S
C3146      H3157   1.110       .  S
C3146      H3158   1.111       .  S
C3146      H3159   1.110       .  S
C3148      C3149   1.396       .  A
C3148      C3153   1.508   1_554  S
C3149      C3150   1.402       .  A
C3149      H3154   1.085       .  S
C3150      C3151   1.414       .  A
C3151      C3152   1.403       .  A
C3151      C3155   1.507       .  S
C3152      H3156   1.085   1_554  S
C3153      H3163   1.111   1_556  S
C3153      H3164   1.110       .  S
C3153      H3165   1.109       .  S
C3155      H3166   1.110       .  S
C3155      H3167   1.108       .  S
C3155      H3168   1.111       .  S
C3169      C3170   1.401       .  A
C3169      C3174   1.410       .  A
C3169      H3179   1.084       .  S
C3170      C3175   1.481       .  S
C3170      C3171   1.408       .  A
C3171      C3172   1.399       .  A
C3171      C3176   1.509       .  S
C3172      C3173   1.408       .  A
C3172      H3177   1.084       .  S
C3173      C3174   1.422       .  A
C3174      C3178   1.507       .  S
C3175      C3180   1.412       .  A
C3175      C3184   1.401       .  A
C3176      H3192   1.110       .  S
C3176      H3193   1.109       .  S
C3176      H3194   1.111       .  S
C3178      H3189   1.110       .  S
C3178      H3190   1.111       .  S
C3178      H3191   1.110       .  S
C3180      C3181   1.407       .  A
C3180      C3185   1.506       .  S
C3181      C3182   1.405       .  A
C3181      H3186   1.084       .  S
C3182      C3183   1.413       .  A
C3183      C3184   1.402       .  A
C3183      C3187   1.508       .  S
C3184      H3188   1.084       .  S
C3185      H3195   1.111       .  S
C3185      H3196   1.110       .  S
C3185      H3197   1.110       .  S
C3187      H3198   1.111       .  S
C3187      H3199   1.110       .  S
C3187      H3200   1.109       .  S
C3201      C3202   1.399       .  A
C3201      C3206   1.407       .  A
C3201      H3211   1.085       .  S
C3202      C3207   1.484       .  S
C3202      C3203   1.408       .  A
C3203      C3204   1.403       .  A
C3203      C3208   1.506       .  S
C3204      C3205   1.409       .  A
C3204      H3209   1.083       .  S
C3205      C3206   1.426       .  A
C3206      C3210   1.509       .  S
C3207      C3212   1.408       .  A
C3207      C3216   1.399       .  A
C3208      H3224   1.110       .  S
C3208      H3225   1.110       .  S
C3208      H3226   1.111       .  S
C3210      H3221   1.110       .  S
C3210      H3222   1.111       .  S
C3210      H3223   1.111   1_554  S
C3212      C3213   1.404       .  A
C3212      C3217   1.507       .  S
C3213      C3214   1.411       .  A
C3213      H3218   1.083       .  S
C3214      C3215   1.424       .  A
C3215      C3216   1.408       .  A
C3215      C3219   1.508       .  S
C3216      H3220   1.085       .  S
C3217      H3227   1.111       .  S
C3217      H3228   1.110       .  S
C3217      H3229   1.110       .  S
C3219      H3230   1.110       .  S
C3219      H3231   1.110       .  S
C3219      H3232   1.111       .  S
C3233      C3234   1.397       .  A
C3233      C3238   1.394       .  A
C3233      H3243   1.085       .  S
C3234      C3239   1.469       .  S
C3234      C3235   1.410       .  A
C3235      C3236   1.404       .  A
C3235      C3240   1.506       .  S
C3236      C3237   1.401       .  A
C3236      H3241   1.084       .  S
C3237      C3238   1.414       .  A
C3238      C3242   1.509   1_556  S
C3239      C3244   1.411       .  A
C3239      C3248   1.402       .  A
C3240      H3256   1.110       .  S
C3240      H3257   1.109       .  S
C3240      H3258   1.111       .  S
C3242      H3253   1.108       .  S
C3242      H3254   1.111       .  S
C3242      H3255   1.110       .  S
C3244      C3245   1.392       .  A
C3244      C3249   1.512       .  S
C3245      C3246   1.402       .  A
C3245      H3250   1.085       .  S
C3246      C3247   1.417       .  A
C3247      C3248   1.404       .  A
C3247      C3251   1.508       .  S
C3248      H3252   1.084       .  S
C3249      H3259   1.111       .  S
C3249      H3260   1.110       .  S
C3249      H3261   1.107       .  S
C3251      H3262   1.111       .  S
C3251      H3263   1.104       .  S
C3251      H3264   1.110       .  S
C3265      C3266   1.400       .  A
C3265      C3270   1.408       .  A
C3265      H3275   1.084       .  S
C3266      C3271   1.488       .  S
C3266      C3267   1.409       .  A
C3267      C3268   1.406       .  A
C3267      C3272   1.506       .  S
C3268      C3269   1.410       .  A
C3268      H3273   1.083       .  S
C3269      C3270   1.424       .  A
C3270      C3274   1.508       .  S
C3271      C3276   1.412       .  A
C3271      C3280   1.399       .  A
C3272      H3288   1.110       .  S
C3272      H3289   1.110       .  S
C3272      H3290   1.111       .  S
C3274      H3285   1.110       .  S
C3274      H3286   1.111       .  S
C3274      H3287   1.110       .  S
C3276      C3277   1.408       .  A
C3276      C3281   1.506       .  S
C3277      C3278   1.408       .  A
C3277      H3282   1.084       .  S
C3278      C3279   1.421       .  A
C3279      C3280   1.406       .  A
C3279      C3283   1.507       .  S
C3280      H3284   1.084       .  S
C3281      H3291   1.111       .  S
C3281      H3292   1.110       .  S
C3281      H3293   1.110       .  S
C3283      H3294   1.110       .  S
C3283      H3295   1.110       .  S
C3283      H3296   1.111       .  S
C3297      C3298   1.401       .  A
C3297      C3302   1.402       .  A
C3297      H3307   1.085       .  S
C3298      C3303   1.488       .  S
C3298      C3299   1.413   1_554  A
C3299      C3300   1.409       .  A
C3299      C3304   1.505       .  S
C3300      C3301   1.404       .  A
C3300      H3305   1.084       .  S
C3301      C3302   1.418   1_556  A
C3302      C3306   1.510       .  S
C3303      C3308   1.410       .  A
C3303      C3312   1.402       .  A
C3304      H3320   1.110       .  S
C3304      H3321   1.110       .  S
C3304      H3322   1.111       .  S
C3306      H3317   1.110       .  S
C3306      H3318   1.110       .  S
C3306      H3319   1.108       .  S
C3308      C3309   1.402       .  A
C3308      C3313   1.508       .  S
C3309      C3310   1.409       .  A
C3309      H3314   1.083       .  S
C3310      C3311   1.422       .  A
C3311      C3312   1.411       .  A
C3311      C3315   1.506       .  S
C3312      H3316   1.085       .  S
C3313      H3323   1.111       .  S
C3313      H3324   1.110       .  S
C3313      H3325   1.110   1_554  S
C3315      H3326   1.110       .  S
C3315      H3327   1.111       .  S
C3315      H3328   1.111       .  S
C3329      C3330   1.401       .  A
C3329      C3334   1.405       .  A
C3329      H3339   1.085       .  S
C3330      C3335   1.482       .  S
C3330      C3331   1.409       .  A
C3331      C3332   1.404       .  A
C3331      C3336   1.506       .  S
C3332      C3333   1.407       .  A
C3332      H3337   1.085   1_556  S
C3333      C3334   1.419       .  A
C3334      C3338   1.510       .  S
C3335      C3340   1.407       .  A
C3335      C3344   1.399       .  A
C3336      H3352   1.110       .  S
C3336      H3353   1.110       .  S
C3336      H3354   1.111   1_556  S
C3338      H3349   1.111       .  S
C3338      H3350   1.111       .  S
C3338      H3351   1.110       .  S
C3340      C3341   1.402       .  A
C3340      C3345   1.507       .  S
C3341      C3342   1.410       .  A
C3341      H3346   1.083       .  S
C3342      C3343   1.425       .  A
C3343      C3344   1.407       .  A
C3343      C3347   1.509       .  S
C3344      H3348   1.084       .  S
C3345      H3355   1.111       .  S
C3345      H3356   1.110       .  S
C3345      H3357   1.110       .  S
C3347      H3358   1.111       .  S
C3347      H3359   1.110       .  S
C3347      H3360   1.110       .  S
C3361      C3362   1.403       .  A
C3361      C3366   1.407       .  A
C3361      H3371   1.083       .  S
C3362      C3367   1.478       .  S
C3362      C3363   1.413       .  A
C3363      C3364   1.396       .  A
C3363      C3368   1.509       .  S
C3364      C3365   1.400       .  A
C3364      H3369   1.085       .  S
C3365      C3366   1.414       .  A
C3366      C3370   1.506       .  S
C3367      C3372   1.411       .  A
C3367      C3376   1.401       .  A
C3368      H3384   1.109       .  S
C3368      H3385   1.111       .  S
C3368      H3386   1.111       .  S
C3370      H3381   1.110   1_554  S
C3370      H3382   1.111   1_554  S
C3370      H3383   1.111   1_554  S
C3372      C3373   1.399       .  A
C3372      C3377   1.508       .  S
C3373      C3374   1.402       .  A
C3373      H3378   1.085       .  S
C3374      C3375   1.416       .  A
C3375      C3376   1.403       .  A
C3375      C3379   1.507       .  S
C3376      H3380   1.085       .  S
C3377      H3387   1.111       .  S
C3377      H3388   1.110       .  S
C3377      H3389   1.110       .  S
C3379      H3390   1.110       .  S
C3379      H3391   1.105       .  S
C3379      H3392   1.111       .  S
C3393      C3394   1.397       .  A
C3393      C3398   1.402       .  A
C3393      H3403   1.083       .  S
C3394      C3399   1.479       .  S
C3394      C3395   1.410       .  A
C3395      C3396   1.405       .  A
C3395      C3400   1.506       .  S
C3396      C3397   1.405       .  A
C3396      H3401   1.083       .  S
C3397      C3398   1.421       .  A
C3398      C3402   1.509       .  S
C3399      C3404   1.409       .  A
C3399      C3408   1.400       .  A
C3400      H3416   1.110       .  S
C3400      H3417   1.110       .  S
C3400      H3418   1.111       .  S
C3402      H3413   1.111       .  S
C3402      H3414   1.111   1_556  S
C3402      H3415   1.110       .  S
C3404      C3405   1.400       .  A
C3404      C3409   1.507       .  S
C3405      C3406   1.405       .  A
C3405      H3410   1.084       .  S
C3406      C3407   1.419       .  A
C3407      C3408   1.407       .  A
C3407      C3411   1.507       .  S
C3408      H3412   1.084       .  S
C3409      H3419   1.111       .  S
C3409      H3420   1.110       .  S
C3409      H3421   1.110       .  S
C3411      H3422   1.111       .  S
C3411      H3423   1.106   1_655  S
C3411      H3424   1.110       .  S
C3425      C3426   1.401       .  A
C3425      C3430   1.401       .  A
C3425      H3435   1.085       .  S
C3426      C3431   1.474       .  S
C3426      C3427   1.410       .  A
C3427      C3428   1.400       .  A
C3427      C3432   1.507       .  S
C3428      C3429   1.401       .  A
C3428      H3433   1.085       .  S
C3429      C3430   1.414       .  A
C3430      C3434   1.508       .  S
C3431      C3436   1.410       .  A
C3431      C3440   1.400       .  A
C3432      H3448   1.109       .  S
C3432      H3449   1.111       .  S
C3432      H3450   1.111       .  S
C3434      H3445   1.110       .  S
C3434      H3446   1.110       .  S
C3434      H3447   1.108       .  S
C3436      C3437   1.404       .  A
C3436      C3441   1.505       .  S
C3437      C3438   1.401       .  A
C3437      H3442   1.084       .  S
C3438      C3439   1.411       .  A
C3439      C3440   1.396       .  A
C3439      C3443   1.510       .  S
C3440      H3444   1.085       .  S
C3441      H3451   1.111       .  S
C3441      H3452   1.110       .  S
C3441      H3453   1.110       .  S
C3443      H3454   1.110       .  S
C3443      H3455   1.108       .  S
C3443      H3456   1.110       .  S
C3457      C3458   1.399       .  A
C3457      C3462   1.395       .  A
C3457      H3467   1.085       .  S
C3458      C3463   1.475       .  S
C3458      C3459   1.411       .  A
C3459      C3460   1.406       .  A
C3459      C3464   1.505       .  S
C3460      C3461   1.403       .  A
C3460      H3465   1.084       .  S
C3461      C3462   1.413       .  A
C3462      C3466   1.511       .  S
C3463      C3468   1.410       .  A
C3463      C3472   1.399       .  A
C3464      H3480   1.110       .  S
C3464      H3481   1.110       .  S
C3464      H3482   1.111       .  S
C3466      H3477   1.110       .  S
C3466      H3478   1.110       .  S
C3466      H3479   1.108       .  S
C3468      C3469   1.401       .  A
C3468      C3473   1.507       .  S
C3469      C3470   1.403       .  A
C3469      H3474   1.084       .  S
C3470      C3471   1.418       .  A
C3471      C3472   1.401       .  A
C3471      C3475   1.510       .  S
C3472      H3476   1.085       .  S
C3473      H3483   1.111       .  S
C3473      H3484   1.110       .  S
C3473      H3485   1.110       .  S
C3475      H3486   1.111       .  S
C3475      H3487   1.106       .  S
C3475      H3488   1.110       .  S
C3489      C3490   1.399       .  A
C3489      C3494   1.408       .  A
C3489      H3499   1.083       .  S
C3490      C3495   1.477       .  S
C3490      C3491   1.409       .  A
C3491      C3492   1.396       .  A
C3491      C3496   1.510       .  S
C3492      C3493   1.408       .  A
C3492      H3497   1.082       .  S
C3493      C3494   1.423       .  A
C3494      C3498   1.507       .  S
C3495      C3500   1.406       .  A
C3495      C3504   1.398       .  A
C3496      H3512   1.110       .  S
C3496      H3513   1.109       .  S
C3496      H3514   1.111       .  S
C3498      H3509   1.111       .  S
C3498      H3510   1.109       .  S
C3498      H3511   1.109       .  S
C3500      C3501   1.404       .  A
C3500      C3505   1.506       .  S
C3501      C3502   1.410       .  A
C3501      H3506   1.083       .  S
C3502      C3503   1.422       .  A
C3503      C3504   1.401       .  A
C3503      C3507   1.509       .  S
C3504      H3508   1.085       .  S
C3505      H3515   1.111       .  S
C3505      H3516   1.110       .  S
C3505      H3517   1.109       .  S
C3507      H3518   1.111       .  S
C3507      H3519   1.109       .  S
C3507      H3520   1.109       .  S
C3521      C3522   1.403       .  A
C3521      C3526   1.407       .  A
C3521      H3531   1.084       .  S
C3522      C3527   1.487       .  S
C3522      C3523   1.412       .  A
C3523      C3524   1.403       .  A
C3523      C3528   1.507       .  S
C3524      C3525   1.404       .  A
C3524      H3529   1.084       .  S
C3525      C3526   1.418       .  A
C3526      C3530   1.508       .  S
C3527      C3532   1.412       .  A
C3527      C3536   1.403       .  A
C3528      H3544   1.109       .  S
C3528      H3545   1.110       .  S
C3528      H3546   1.111       .  S
C3530      H3541   1.111       .  S
C3530      H3542   1.111       .  S
C3530      H3543   1.109       .  S
C3532      C3533   1.406       .  A
C3532      C3537   1.506       .  S
C3533      C3534   1.406       .  A
C3533      H3538   1.084       .  S
C3534      C3535   1.416       .  A
C3535      C3536   1.404       .  A
C3535      C3539   1.508       .  S
C3536      H3540   1.084       .  S
C3537      H3547   1.111       .  S
C3537      H3548   1.109       .  S
C3537      H3549   1.110       .  S
C3539      H3550   1.111       .  S
C3539      H3551   1.110       .  S
C3539      H3552   1.109       .  S
C3553      C3554   1.400       .  A
C3553      C3558   1.403       .  A
C3553      H3563   1.084       .  S
C3554      C3559   1.478       .  S
C3554      C3555   1.408       .  A
C3555      C3556   1.403       .  A
C3555      C3560   1.507       .  S
C3556      C3557   1.407       .  A
C3556      H3561   1.084       .  S
C3557      C3558   1.418       .  A
C3558      C3562   1.508       .  S
C3559      C3564   1.409       .  A
C3559      C3568   1.400       .  A
C3560      H3576   1.110       .  S
C3560      H3577   1.109       .  S
C3560      H3578   1.111       .  S
C3562      H3573   1.111       .  S
C3562      H3574   1.109       .  S
C3562      H3575   1.109       .  S
C3564      C3565   1.401       .  A
C3564      C3569   1.508       .  S
C3565      C3566   1.407       .  A
C3565      H3570   1.084       .  S
C3566      C3567   1.418       .  A
C3567      C3568   1.404       .  A
C3567      C3571   1.508       .  S
C3568      H3572   1.085       .  S
C3569      H3579   1.111       .  S
C3569      H3580   1.110       .  S
C3569      H3581   1.109       .  S
C3571      H3582   1.110       .  S
C3571      H3583   1.106       .  S
C3571      H3584   1.111       .  S
C3585      C3586   1.399       .  A
C3585      C3590   1.407       .  A
C3585      H3595   1.084       .  S
C3586      C3591   1.478       .  S
C3586      C3587   1.407       .  A
C3587      C3588   1.399       .  A
C3587      C3592   1.509       .  S
C3588      C3589   1.410       .  A
C3588      H3593   1.084       .  S
C3589      C3590   1.423       .  A
C3590      C3594   1.508       .  S
C3591      C3596   1.407       .  A
C3591      C3600   1.398       .  A
C3592      H3608   1.110       .  S
C3592      H3609   1.110       .  S
C3592      H3610   1.111       .  S
C3594      H3605   1.110       .  S
C3594      H3606   1.111       .  S
C3594      H3607   1.110       .  S
C3596      C3597   1.402       .  A
C3596      C3601   1.506       .  S
C3597      C3598   1.408       .  A
C3597      H3602   1.084       .  S
C3598      C3599   1.423       .  A
C3599      C3600   1.403       .  A
C3599      C3603   1.510       .  S
C3600      H3604   1.085       .  S
C3601      H3611   1.111       .  S
C3601      H3612   1.110       .  S
C3601      H3613   1.110       .  S
C3603      H3614   1.110       .  S
C3603      H3615   1.111       .  S
C3603      H3616   1.111       .  S
C3617      C3618   1.400       .  A
C3617      C3622   1.404       .  A
C3617      H3627   1.085       .  S
C3618      C3623   1.481       .  S
C3618      C3619   1.408       .  A
C3619      C3620   1.404       .  A
C3619      C3624   1.506       .  S
C3620      C3621   1.409       .  A
C3620      H3625   1.084       .  S
C3621      C3622   1.421       .  A
C3622      C3626   1.509       .  S
C3623      C3628   1.409       .  A
C3623      C3632   1.400       .  A
C3624      H3640   1.109       .  S
C3624      H3641   1.110       .  S
C3624      H3642   1.111       .  S
C3626      H3637   1.111       .  S
C3626      H3638   1.111       .  S
C3626      H3639   1.109       .  S
C3628      C3629   1.404       .  A
C3628      C3633   1.506       .  S
C3629      C3630   1.407       .  A
C3629      H3634   1.084       .  S
C3630      C3631   1.421       .  A
C3631      C3632   1.403       .  A
C3631      C3635   1.509       .  S
C3632      H3636   1.084       .  S
C3633      H3643   1.111       .  S
C3633      H3644   1.109       .  S
C3633      H3645   1.110       .  S
C3635      H3646   1.111       .  S
C3635      H3647   1.110       .  S
C3635      H3648   1.111       .  S
C3649      C3650   1.402       .  A
C3649      C3654   1.405       .  A
C3649      H3659   1.084       .  S
C3650      C3655   1.484       .  S
C3650      C3651   1.411       .  A
C3651      C3652   1.402       .  A
C3651      C3656   1.508       .  S
C3652      C3653   1.405       .  A
C3652      H3657   1.084       .  S
C3653      C3654   1.418       .  A
C3654      C3658   1.509       .  S
C3655      C3660   1.412       .  A
C3655      C3664   1.403       .  A
C3656      H3672   1.110       .  S
C3656      H3673   1.111       .  S
C3656      H3674   1.111       .  S
C3658      H3669   1.111       .  S
C3658      H3670   1.110       .  S
C3658      H3671   1.105       .  S
C3660      C3661   1.400       .  A
C3660      C3665   1.508       .  S
C3661      C3662   1.403       .  A
C3661      H3666   1.085       .  S
C3662      C3663   1.417       .  A
C3663      C3664   1.406       .  A
C3663      C3667   1.508       .  S
C3664      H3668   1.084       .  S
C3665      H3675   1.111       .  S
C3665      H3676   1.109       .  S
C3665      H3677   1.110       .  S
C3667      H3678   1.110       .  S
C3667      H3679   1.106       .  S
C3667      H3680   1.111       .  S
C3681      C3682   1.399       .  A
C3681      C3686   1.395       .  A
C3681      H3691   1.085       .  S
C3682      C3687   1.477       .  S
C3682      C3683   1.413       .  A
C3683      C3684   1.407       .  A
C3683      C3688   1.506       .  S
C3684      C3685   1.402       .  A
C3684      H3689   1.084       .  S
C3685      C3686   1.414       .  A
C3686      C3690   1.508       .  S
C3687      C3692   1.414       .  A
C3687      C3696   1.400       .  A
C3688      H3704   1.109       .  S
C3688      H3705   1.110       .  S
C3688      H3706   1.111       .  S
C3690      H3701   1.111       .  S
C3690      H3702   1.109       .  S
C3690      H3703   1.109       .  S
C3692      C3693   1.406       .  A
C3692      C3697   1.506       .  S
C3693      C3694   1.401       .  A
C3693      H3698   1.084       .  S
C3694      C3695   1.412       .  A
C3695      C3696   1.395       .  A
C3695      C3699   1.509       .  S
C3696      H3700   1.084       .  S
C3697      H3707   1.111       .  S
C3697      H3708   1.109       .  S
C3697      H3709   1.110       .  S
C3699      H3710   1.109       .  S
C3699      H3711   1.110       .  S
C3699      H3712   1.111       .  S
C3713      C3714   1.398       .  A
C3713      C3718   1.406       .  A
C3713      H3723   1.084       .  S
C3714      C3719   1.484       .  S
C3714      C3715   1.409       .  A
C3715      C3716   1.404       .  A
C3715      C3720   1.507       .  S
C3716      C3717   1.410       .  A
C3716      H3721   1.084       .  S
C3717      C3718   1.425       .  A
C3718      C3722   1.509       .  S
C3719      C3724   1.408       .  A
C3719      C3728   1.400       .  A
C3720      H3736   1.110       .  S
C3720      H3737   1.111       .  S
C3720      H3738   1.111       .  S
C3722      H3733   1.111       .  S
C3722      H3734   1.111       .  S
C3722      H3735   1.110       .  S
C3724      C3725   1.405       .  A
C3724      C3729   1.506       .  S
C3725      C3726   1.410       .  A
C3725      H3730   1.083       .  S
C3726      C3727   1.423       .  A
C3727      C3728   1.405       .  A
C3727      C3731   1.510       .  S
C3728      H3732   1.085       .  S
C3729      H3739   1.111       .  S
C3729      H3740   1.110       .  S
C3729      H3741   1.110       .  S
C3731      H3742   1.111       .  S
C3731      H3743   1.110       .  S
C3731      H3744   1.111       .  S
C3745      C3746   1.401       .  A
C3745      C3750   1.401       .  A
C3745      H3755   1.084       .  S
C3746      C3751   1.478       .  S
C3746      C3747   1.409       .  A
C3747      C3748   1.403       .  A
C3747      C3752   1.506       .  S
C3748      C3749   1.405       .  A
C3748      H3753   1.084       .  S
C3749      C3750   1.417       .  A
C3750      C3754   1.511       .  S
C3751      C3756   1.407       .  A
C3751      C3760   1.398       .  A
C3752      H3768   1.110       .  S
C3752      H3769   1.110       .  S
C3752      H3770   1.111       .  S
C3754      H3765   1.111       .  S
C3754      H3766   1.110       .  S
C3754      H3767   1.107       .  S
C3756      C3757   1.401       .  A
C3756      C3761   1.507       .  S
C3757      C3758   1.410       .  A
C3757      H3762   1.083       .  S
C3758      C3759   1.424       .  A
C3759      C3760   1.405       .  A
C3759      C3763   1.507       .  S
C3760      H3764   1.084       .  S
C3761      H3771   1.111       .  S
C3761      H3772   1.110       .  S
C3761      H3773   1.110       .  S
C3763      H3774   1.108       .  S
C3763      H3775   1.110       .  S
C3763      H3776   1.111       .  S
