geometry optimzed in LAMMPS
_audit_creation_date              2020-12-01 
_audit_creation_method            'lammps2cif' 
_symmetry_space_group_name_H-M    'P1' 
_symmetry_Int_Tables_number       1 
_symmetry_cell_setting            triclinic 
loop_ 
_symmetry_equiv_pos_as_xyz 
  x,y,z 
_cell_length_a                    35.40347287 
_cell_length_b                    35.390571143453826 
_cell_length_c                    44.18590513651262 
_cell_angle_alpha                 90.5420172347833 
_cell_angle_beta                  89.8349297526124 
_cell_angle_gamma                 90.40874904146852 
loop_ 
_atom_site_label 
_atom_site_type_symbol 
_atom_site_fract_x 
_atom_site_fract_y 
_atom_site_fract_z 
_atom_site_charge 
O1          O  0.86079446  0.04792284  0.50099922    -0.83000
C2          C  0.90275133  0.09889841  0.11605479     0.96300
O3          O  0.92529962  0.09908946  0.09375440    -0.72100
O4          O  0.93445860  0.03432628  0.06784852    -0.75700
Al5        Al  0.91931011  0.08091499  0.05287439     1.49000
C6          C  0.93310155  0.00771641  0.04919302     0.91600
O7          O  0.83591238  0.00735441  0.08114775    -0.81900
O8          O  0.81033461  0.10607085  0.04180769    -0.75500
Al9        Al  0.85229704  0.02605540  0.04118339     1.90100
O10         O  0.80780814  0.06116242  0.09248986    -0.74600
O11         O  0.86435489  0.14692397  0.06581838    -0.74400
O12         O  0.86754108  0.09624757  0.11257478    -0.80100
O13         O  0.91105308  0.12859360  0.03723599    -0.78300
O14         O  0.87082339  0.06916387  0.05697949    -1.14400
O15         O  0.91781499  0.06979053  0.51174091    -0.73600
C16         C  0.89240248  0.06099007  0.49255690     0.97100
C17         C  0.81154894  0.02606012  0.09666815     0.93500
Al18       Al  0.84003625  0.10012933  0.07660547     1.55600
O19         O  0.90037963  0.99703738  0.04079897    -0.78200
C20         C  0.89035143  0.15424214  0.04722105     0.97700
C21         C  0.79314778  0.07947975  0.02839872     0.92500
O22         O  0.80224091  0.04554247  0.03348759    -0.83600
O23         O  0.63407036  0.06599747  0.27053760    -0.83000
C24         C  0.60401142  0.10567868  0.15092585     0.96300
O25         O  0.58000762  0.10620948  0.17211511    -0.72100
O26         O  0.56810086  0.04775108  0.20438342    -0.75700
Al27       Al  0.58315334  0.09688342  0.21421321     1.49000
C28         C  0.56842140  0.02464471  0.22546462     0.91600
O29         O  0.66877694  0.01966638  0.19679237    -0.81900
O30         O  0.69377180  0.12390868  0.22759887    -0.75500
Al31       Al  0.64891052  0.04462064  0.23371635     1.90100
O32         O  0.69677451  0.07185135  0.18098171    -0.74600
O33         O  0.64185914  0.16162786  0.20021419    -0.74400
O34         O  0.63900565  0.10607849  0.15617473    -0.80100
O35         O  0.58992128  0.14732830  0.22396406    -0.78300
O36         O  0.63208736  0.08515263  0.21344616    -1.14400
O37         O  0.57928578  0.09043329  0.25725959    -0.73600
C38         C  0.60330651  0.08176548  0.27719762     0.97100
C39         C  0.69471310  0.03607302  0.18122482     0.93500
Al40       Al  0.66489445  0.11340889  0.19284920     1.55600
O41         O  0.60078701  0.01507833  0.23487036    -0.78200
C42         C  0.61341299  0.17136150  0.21543267     0.97700
C43         C  0.70942968  0.09919967  0.24337401     0.92500
O44         O  0.69824203  0.06517947  0.24251311    -0.83600
O45         O  0.18994658  0.95648819  0.99757623    -0.83000
C46         C  0.10739484  0.90472621  0.40206173     0.96300
O47         O  0.14059474  0.89435509  0.40938851    -0.72100
O48         O  0.19014238  0.94749894  0.42273453    -0.75700
Al49       Al  0.17140920  0.90560115  0.44425088     1.49000
C50         C  0.18849905  0.98296872  0.42492778     0.91600
O51         O  0.09278881  0.99889336  0.46716643    -0.81900
O52         O  0.09904113  0.89292169  0.00446564    -0.75500
Al53       Al  0.14340381  0.96948101  0.97968203     1.90100
O54         O  0.05868393  0.94837161  0.47183530    -0.74600
O55         O  0.10210641  0.85741318  0.45464641    -0.74400
O56         O  0.08351196  0.91618957  0.42149887    -0.80100
O57         O  0.16123524  0.85913821  0.46482281    -0.78300
O58         O  0.13414636  0.93091697  0.46188506    -1.14400
O59         O  0.20608118  0.91293324  0.47540131    -0.73600
C60         C  0.21369108  0.93086480  0.99318325     0.97100
C61         C  0.06124705  0.98323020  0.47298691     0.93500
Al62       Al  0.08918381  0.90817455  0.46286100     1.55600
O63         O  0.16755199  0.99875800  0.44491417    -0.78200
C64         C  0.13068612  0.84120856  0.46416674     0.97700
C65         C  0.10863181  0.91797731  0.02389056     0.92500
O66         O  0.12087267  0.95045463  0.01595793    -0.83600
O67         O  0.30693441  0.96372843  0.28413186    -0.83000
C68         C  0.40498197  0.92608506  0.37267236     0.96300
O69         O  0.37015269  0.92460402  0.36711279    -0.72100
O70         O  0.30975049  0.95359567  0.34357968    -0.75700
Al71       Al  0.34601983  0.91633423  0.33045499     1.49000
C72         C  0.30969714  0.98938931  0.34566171     0.91600
O73         O  0.40019119  0.02266396  0.29316558    -0.81900
O74         O  0.42849215  0.95377008  0.26779367    -0.75500
Al75       Al  0.35475758  0.98870670  0.29303952     1.90100
O76         O  0.43468062  0.99163462  0.32352747    -0.74600
O77         O  0.42295778  0.89268281  0.29665429    -0.74400
O78         O  0.42927091  0.92866597  0.35174529    -0.80100
O79         O  0.37503185  0.87156936  0.32238040    -0.78300
O80         O  0.37560108  0.94895353  0.31137831    -1.14400
O81         O  0.31926272  0.90493898  0.29480166    -0.73600
C82         C  0.29962977  0.92868546  0.28106589     0.97100
C83         C  0.43297918  0.01593963  0.30334456     0.93500
Al84       Al  0.42517093  0.94229651  0.31018667     1.55600
O85         O  0.33402801  0.00901580  0.33098141    -0.78200
C86         C  0.40377854  0.86561901  0.30619239     0.97700
C87         C  0.40375652  0.96057567  0.24796470     0.92500
O88         O  0.37095842  0.97105138  0.25535556    -0.83600
O89         O  0.45424143  0.88695790  0.50530623    -0.83000
C90         C  0.41397262  0.92008771  0.12355282     0.96300
O91         O  0.41305806  0.94344989  0.10220104    -0.72100
O92         O  0.47458406  0.95421348  0.07246092    -0.75700
Al93       Al  0.42586832  0.93964444  0.06078123     1.49000
C94         C  0.49944295  0.95250951  0.05237745     0.91600
O95         O  0.50063056  0.85289927  0.07999383    -0.81900
O96         O  0.39709576  0.83064944  0.04661013    -0.75500
Al97       Al  0.47805160  0.87272203  0.04285192     1.90100
O98         O  0.44732000  0.82560641  0.09400512    -0.74600
O99         O  0.36033252  0.88354375  0.07565417    -0.74400
O100        O  0.41572158  0.88490054  0.11892048    -0.80100
O101        O  0.37603349  0.93224267  0.04871947    -0.78300
O102        O  0.43714700  0.89072714  0.06212123    -1.14400
O103        O  0.42985696  0.94201070  0.51848813    -0.73600
C104        C  0.43928593  0.91795167  0.49848656     0.97100
C105        C  0.48298389  0.82749596  0.09501354     0.93500
Al106      Al  0.40763010  0.85888451  0.08227532     1.55600
O107        O  0.50873370  0.91974343  0.04330675    -0.78200
C108        C  0.35135475  0.90992090  0.05830146     0.97700
C109        C  0.42171741  0.81508039  0.03007838     0.92500
O110        O  0.45624663  0.82373874  0.03346533    -0.83600
O111        O  0.46619411  0.65206650  0.26662255    -0.83000
C112        C  0.40743203  0.62464891  0.15203413     0.96300
O113        O  0.41000577  0.59916527  0.17196822    -0.72100
O114        O  0.47027233  0.58340824  0.20133219    -0.75700
Al115      Al  0.42373059  0.60141813  0.21422767     1.49000
C116        C  0.49584206  0.58293371  0.22052621     0.91600
O117        O  0.50183069  0.68091074  0.18885304    -0.81900
O118        O  0.40614629  0.71196073  0.23184063    -0.75500
Al119      Al  0.48257977  0.66447056  0.22832487     1.90100
O120        O  0.44988938  0.71347338  0.17996528    -0.74600
O121        O  0.36053258  0.66338248  0.20686284    -0.74400
O122        O  0.40829768  0.65918564  0.15896422    -0.80100
O123        O  0.37478926  0.60968775  0.22701391    -0.78300
O124        O  0.43801161  0.64954898  0.21262849    -1.14400
O125        O  0.43500981  0.59890254  0.25748261    -0.73600
C126        C  0.44859167  0.62345465  0.27593967     0.97100
C127        C  0.48455048  0.70724440  0.17482388     0.93500
Al128      Al  0.40867352  0.68404900  0.19583385     1.55600
O129        O  0.50901346  0.61498235  0.22817061    -0.78200
C130        C  0.35091742  0.63391971  0.22051996     0.97700
C131        C  0.43422121  0.72668858  0.24474738     0.92500
O132        O  0.46726955  0.71560989  0.23819853    -0.83600
O133        O  0.54809914  0.21269958  0.98948249    -0.83000
C134        C  0.59094271  0.11648745  0.40340975     0.96300
O135        O  0.59291326  0.15129238  0.40965122    -0.72100
O136        O  0.55887002  0.20980139  0.43244699    -0.75700
Al137      Al  0.59747254  0.17643877  0.44671644     1.49000
C138        C  0.52336121  0.20772937  0.42907484     0.91600
O139        O  0.49249861  0.11660534  0.48191454    -0.81900
O140        O  0.56930453  0.09377190  0.00755150    -0.75500
Al141      Al  0.52832927  0.16337501  0.98100565     1.90100
O142        O  0.52654967  0.08255021  0.45283411    -0.74600
O143        O  0.62491920  0.10001020  0.47825868    -0.74400
O144        O  0.58834780  0.09211733  0.42399144    -0.80100
O145        O  0.64352684  0.15129766  0.45598603    -0.78300
O146        O  0.56568565  0.14477259  0.46470186    -1.14400
O147        O  0.60492458  0.20439746  0.48301974    -0.73600
C148        C  0.58183376  0.22294925  0.99428600     0.97100
C149        C  0.50148946  0.08392415  0.47263329     0.93500
Al150      Al  0.57517880  0.09554302  0.46559951     1.55600
O151        O  0.50412264  0.18274363  0.44356639    -0.78200
C152        C  0.65072197  0.12243518  0.47113679     0.97700
C153        C  0.56000640  0.11871587  0.02699537     0.92500
O154        O  0.54614366  0.14991513  0.01926362    -0.83600
O155        O  0.55226722  0.31923782  0.28470584    -0.83000
C156        C  0.59755398  0.41632175  0.37314045     0.96300
O157        O  0.60055589  0.38187482  0.36653654    -0.72100
O158        O  0.56365925  0.32475825  0.34457728    -0.75700
Al159      Al  0.60427201  0.35629899  0.33001451     1.49000
C160        C  0.52800355  0.32763108  0.34658981     0.91600
O161        O  0.50287689  0.41668915  0.28994744    -0.81900
O162        O  0.57605194  0.44025168  0.26756535    -0.75500
Al163      Al  0.53294948  0.36946249  0.29228538     1.90100
O164        O  0.53414033  0.45131371  0.32071595    -0.74600
O165        O  0.63427126  0.43353605  0.30067668    -0.74400
O166        O  0.59328091  0.44127861  0.35317613    -0.80100
O167        O  0.65137140  0.38042992  0.32014040    -0.78300
O168        O  0.57379504  0.38819392  0.31135056    -1.14400
O169        O  0.61182160  0.32700229  0.29481337    -0.73600
C170        C  0.58621298  0.30909362  0.28123817     0.97100
C171        C  0.51061093  0.44956568  0.29983393     0.93500
Al172      Al  0.58355833  0.43769569  0.31076302     1.55600
O173        O  0.51018729  0.35167190  0.33035615    -0.78200
C174        C  0.65964287  0.41064816  0.30682223     0.97700
C175        C  0.56949309  0.41429588  0.24817311     0.92500
O176        O  0.55429872  0.38306369  0.25510312    -0.83600
O177        O  0.05393441  0.87222556  0.27075849    -0.83000
C178        C  0.10269710  0.89159803  0.15225064     0.96300
O179        O  0.09795562  0.91824667  0.17110280    -0.72100
O180        O  0.03998061  0.93536654  0.20320531    -0.75700
Al181      Al  0.08858989  0.91955908  0.21338514     1.49000
C182        C  0.01554879  0.93550261  0.22353934     0.91600
O183        O  0.01151048  0.83636894  0.19655136    -0.81900
O184        O  0.11033155  0.80963167  0.23532540    -0.75500
Al185      Al  0.03374496  0.85604166  0.23405694     1.90100
O186        O  0.06363341  0.80492521  0.18479265    -0.74600
O187        O  0.15343050  0.85737643  0.20813480    -0.74400
O188        O  0.10488310  0.85771006  0.16050834    -0.80100
O189        O  0.13920029  0.91423456  0.22266321    -0.78300
O190        O  0.07626950  0.87075149  0.21501292    -1.14400
O191        O  0.08160749  0.92583777  0.25649200    -0.73600
C192        C  0.07139722  0.90265027  0.27683111     0.97100
C193        C  0.02833550  0.80989736  0.18190118     0.93500
Al194      Al  0.10557389  0.83540727  0.19850695     1.55600
O195        O  0.00584200  0.90375057  0.23379210    -0.78200
C196        C  0.16313286  0.88904354  0.21856878     0.97700
C197        C  0.08336255  0.79576300  0.25005165     0.92500
O198        O  0.05008410  0.80628047  0.24464647    -0.83600
O199        O  0.05308766  0.63876245  0.50294667    -0.83000
C200        C  0.09946133  0.59825182  0.12039758     0.96300
O201        O  0.10598099  0.57863097  0.09686240    -0.72100
O202        O  0.04309865  0.57028432  0.06850998    -0.75700
Al203      Al  0.09033156  0.58704212  0.05577457     1.49000
C204        C  0.01710718  0.57227535  0.04961320     0.91600
O205        O  0.01319165  0.66879605  0.08202594    -0.81900
O206        O  0.11761730  0.69576551  0.05384280    -0.75500
Al207      Al  0.03699342  0.65375208  0.04370589     1.90100
O208        O  0.06519181  0.69575621  0.09921148    -0.74600
O209        O  0.15354312  0.63952727  0.07800426    -0.74400
O210        O  0.09476697  0.63344064  0.11912676    -0.80100
O211        O  0.13852815  0.59901626  0.04230750    -0.78300
O212        O  0.07760946  0.63476136  0.06173321    -1.14400
O213        O  0.07217794  0.58127943  0.51258470    -0.73600
C214        C  0.06350020  0.60672561  0.49389888     0.97100
C215        C  0.02956896  0.69310461  0.09916156     0.93500
Al216      Al  0.10554108  0.66378437  0.08581789     1.55600
O217        O  0.00784287  0.60518146  0.04084821    -0.78200
C218        C  0.16263171  0.61883047  0.05576983     0.97700
C219        C  0.09385660  0.71287690  0.03799846     0.92500
O220        O  0.05906177  0.70364358  0.03879831    -0.83600
O221        O  0.95751946  0.20472321  0.28141236    -0.83000
C222        C  0.91232082  0.10523526  0.36844316     0.96300
O223        O  0.91682291  0.14035538  0.36529640    -0.72100
O224        O  0.95097286  0.19996010  0.34285761    -0.75700
Al225      Al  0.90914884  0.16903202  0.33031457     1.49000
C226        C  0.98659247  0.19775748  0.34183067     0.91600
O227        O  0.00517638  0.10658566  0.28645725    -0.81900
O228        O  0.93352612  0.08643094  0.26095820    -0.75500
Al229      Al  0.97732385  0.15497328  0.28807177     1.90100
O230        O  0.97016832  0.07178861  0.31525342    -0.74600
O231        O  0.87409945  0.10082315  0.29097048    -0.74400
O232        O  0.90820443  0.08358934  0.34565684    -0.80100
O233        O  0.86030899  0.14631935  0.32267235    -0.78300
O234        O  0.93645648  0.13760264  0.30757365    -1.14400
O235        O  0.89910224  0.20063923  0.29725429    -0.73600
C236        C  0.92375712  0.21643891  0.28106545     0.97100
C237        C  0.99613281  0.07394583  0.29601515     0.93500
Al238      Al  0.92256121  0.08938118  0.30375295     1.55600
O239        O  0.00234703  0.17253441  0.32525134    -0.78200
C240        C  0.85082070  0.12352208  0.30193355     0.97700
C241        C  0.94240276  0.11130132  0.24175414     0.92500
O242        O  0.95643539  0.14242799  0.25032212    -0.83600
O243        O  0.95217725  0.30686692  0.98558074    -0.83000
C244        C  0.91131046  0.40402431  0.39775276     0.96300
O245        O  0.91068351  0.36880146  0.40133874    -0.72100
O246        O  0.94682379  0.31115280  0.42190884    -0.75700
Al247      Al  0.90445864  0.34015373  0.43603897     1.49000
C248        C  0.98241505  0.31555265  0.42196644     0.91600
O249        O  0.00101219  0.40247294  0.48220215    -0.81900
O250        O  0.92963047  0.42695175  0.00540486    -0.75500
Al251      Al  0.97283024  0.35409562  0.47754632     1.90100
O252        O  0.96915585  0.43712887  0.45232915    -0.74600
O253        O  0.87017226  0.41222459  0.47130079    -0.74400
O254        O  0.91062515  0.42664118  0.41996783    -0.80100
O255        O  0.85611982  0.36146022  0.44517513    -0.78300
O256        O  0.93229465  0.37186778  0.45826648    -1.14400
O257        O  0.89518420  0.30817377  0.46898541    -0.73600
C258        C  0.91829478  0.29539604  0.98697520     0.97100
C259        C  0.99327156  0.43520563  0.47270484     0.93500
Al260      Al  0.92035797  0.42053325  0.46174369     1.55600
O261        O  0.99805110  0.33981636  0.43972891    -0.78200
C262        C  0.84654313  0.38862122  0.46196369     0.97700
C263        C  0.93508263  0.40074685  0.02425558     0.92500
O264        O  0.94980372  0.36961685  0.01671735    -0.83600
O265        O  0.87962495  0.46378559  0.26778888    -0.83000
C266        C  0.90132220  0.41388398  0.14979315     0.96300
O267        O  0.92756758  0.41755123  0.16886619    -0.72100
O268        O  0.94415959  0.47643325  0.19988815    -0.75700
Al269      Al  0.92767437  0.42816341  0.21087384     1.49000
C270        C  0.94518876  0.50056317  0.22054100     0.91600
O271        O  0.84596314  0.50529639  0.19310361    -0.81900
O272        O  0.81601269  0.40708280  0.23186594    -0.75500
Al273      Al  0.86466239  0.48356800  0.23080727     1.90100
O274        O  0.81428750  0.45289762  0.18118722    -0.74600
O275        O  0.86460013  0.36368152  0.20550733    -0.74400
O276        O  0.86711959  0.41173331  0.15745090    -0.80100
O277        O  0.92094308  0.37796522  0.22130959    -0.78300
O278        O  0.87898036  0.44069112  0.21207236    -1.14400
O279        O  0.93327176  0.43660271  0.25368825    -0.73600
C280        C  0.90998143  0.44688927  0.27403964     0.97100
C281        C  0.81962067  0.48816963  0.17833340     0.93500
Al282      Al  0.84360364  0.41128985  0.19531379     1.55600
O283        O  0.91349624  0.51124004  0.23057809    -0.78200
C284        C  0.89531839  0.35416487  0.21718218     0.97700
C285        C  0.80163793  0.43461945  0.24571444     0.92500
O286        O  0.81410433  0.46759902  0.24100953    -0.83600
O287        O  0.64775581  0.46321109  0.50522088    -0.83000
C288        C  0.60853815  0.42584877  0.12354720     0.96300
O289        O  0.58419467  0.43172779  0.10327983    -0.72100
O290        O  0.57826031  0.49065339  0.07018678    -0.75700
Al291      Al  0.58869745  0.44020338  0.06088402     1.49000
C292        C  0.58137362  0.51258316  0.04841730     0.91600
O293        O  0.67732198  0.50894841  0.08071624    -0.81900
O294        O  0.69709958  0.40551910  0.04621516    -0.75500
Al295      Al  0.65965482  0.48625335  0.04272085     1.90100
O296        O  0.70130231  0.45443948  0.09593140    -0.74600
O297        O  0.64188688  0.36917164  0.07082435    -0.74400
O298        O  0.64267850  0.42022402  0.11737082    -0.80100
O299        O  0.58995280  0.38953123  0.05137718    -0.78300
O300        O  0.63845311  0.44693554  0.06194522    -1.14400
O301        O  0.58911339  0.44610313  0.51775576    -0.73600
C302        C  0.61535043  0.45052269  0.49834321     0.97100
C303        C  0.70020363  0.49032340  0.09735992     0.93500
Al304      Al  0.66825369  0.41498109  0.08111297     1.55600
O305        O  0.61462959  0.51849182  0.03913126    -0.78200
C306        C  0.61133248  0.36287770  0.05718165     0.97700
C307        C  0.71662261  0.43004776  0.03305293     0.92500
O308        O  0.70879376  0.46454775  0.03654129    -0.83600
O309        O  0.20771304  0.55958956  0.28408351    -0.83000
C310        C  0.10399472  0.59237245  0.37008116     0.96300
O311        O  0.13944078  0.59095711  0.36739044    -0.72100
O312        O  0.20287653  0.56582679  0.34442164    -0.75700
Al313      Al  0.16723163  0.60354369  0.33274155     1.49000
C314        C  0.20332476  0.53009935  0.34428888     0.91600
O315        O  0.11376339  0.50099762  0.28862748    -0.81900
O316        O  0.08911732  0.57022888  0.26303052    -0.75500
Al317      Al  0.16021707  0.53399153  0.29072124     1.90100
O318        O  0.07781343  0.53325380  0.31804733    -0.74600
O319        O  0.09697711  0.63153010  0.29349488    -0.74400
O320        O  0.08264445  0.59601663  0.34739913    -0.80100
O321        O  0.13879612  0.64931153  0.32692290    -0.78300
O322        O  0.13907254  0.57323372  0.30979153    -1.14400
O323        O  0.19695497  0.61780056  0.29915971    -0.73600
C324        C  0.21489751  0.59480760  0.28264474     0.97100
C325        C  0.08046462  0.50856131  0.29785255     0.93500
Al326      Al  0.09022397  0.58206675  0.30588194     1.55600
O327        O  0.17922852  0.51154907  0.32833879    -0.78200
C328        C  0.11374852  0.65721547  0.30779177     0.97700
C329        C  0.11483096  0.56191863  0.24411572     0.92500
O330        O  0.14709739  0.55271627  0.25296007    -0.83600
O331        O  0.32107365  0.56714921  0.99486727    -0.83000
C332        C  0.41347839  0.61161195  0.40154799     0.96300
O333        O  0.37961322  0.62270825  0.40562492    -0.72100
O334        O  0.32668794  0.57282515  0.41747988    -0.75700
Al335      Al  0.34451721  0.61572754  0.43845570     1.49000
C336        C  0.32654298  0.53764346  0.42113301     0.91600
O337        O  0.41918962  0.52329161  0.46850189    -0.81900
O338        O  0.41241090  0.62830786  0.00494769    -0.75500
Al339      Al  0.36844457  0.55126782  0.97880051     1.90100
O340        O  0.45211305  0.57409049  0.47611193    -0.74600
O341        O  0.41291699  0.66407358  0.45316144    -0.74400
O342        O  0.43518929  0.60305758  0.42321771    -0.80100
O343        O  0.35287311  0.66404328  0.45744266    -0.78300
O344        O  0.37895636  0.59141778  0.45974110    -1.14400
O345        O  0.30645656  0.61153467  0.46724586    -0.73600
C346        C  0.29988448  0.59489764  0.99028356     0.97100
C347        C  0.45016025  0.53918227  0.47619237     0.93500
Al348      Al  0.42377784  0.61392029  0.46394427     1.55600
O349        O  0.34598131  0.52285419  0.44220467    -0.78200
C350        C  0.38345537  0.68168593  0.45889182     0.97700
C351        C  0.40192619  0.60306618  0.02374234     0.92500
O352        O  0.38957100  0.57069373  0.01552389    -0.83600
C353        C  0.29928729  0.51597799  0.40139830    -0.07300
C354        C  0.30368492  0.51851936  0.36984406    -0.18500
C355        C  0.27255238  0.51622063  0.34993359     0.09900
C356        C  0.23533707  0.51260607  0.36142821    -0.07300
C357        C  0.23132903  0.50600178  0.39261928    -0.18500
C358        C  0.26267602  0.50695608  0.41243514     0.09900
S359        S  0.28021707  0.52210351  0.30986214    -0.33500
S360        S  0.25330042  0.50234812  0.45231106    -0.33500
H361        H  0.28828879  0.48590709  0.45898687     0.27900
H362        H  0.31979737  0.52558821  0.31089100     0.27900
H363        H  0.33105658  0.52609673  0.36091407     0.18500
H364        H  0.20335115  0.50321766  0.40210834     0.18500
C365        C  0.54694225  0.52057947  0.02892212    -0.07300
C366        C  0.51173099  0.50425310  0.03715756    -0.18500
C367        C  0.47993907  0.50453821  0.01787436     0.09900
C368        C  0.48190881  0.52242897  0.98948275    -0.07300
C369        C  0.51973424  0.53821588  0.48094503    -0.18500
C370        C  0.55136644  0.53857137  0.50032392     0.09900
S371        S  0.43681866  0.48344238  0.03150766    -0.33500
S372        S  0.59223391  0.56475928  0.48785130    -0.33500
H373        H  0.59932397  0.58105111  0.51647546     0.27900
H374        H  0.42524269  0.47022579  0.00286478     0.27900
H375        H  0.50889394  0.49036298  0.05878386     0.18500
H376        H  0.52132315  0.55456593  0.46034170     0.18500
C377        C  0.98113917  0.50591030  0.23900602    -0.07300
C378        C  0.97777025  0.51195836  0.27043871    -0.18500
C379        C  0.00853990  0.50800231  0.29032908     0.09900
C380        C  0.04535223  0.49983864  0.27911454    -0.07300
C381        C  0.04888102  0.49384752  0.24760905    -0.18500
C382        C  0.01767018  0.49697203  0.22764468     0.09900
S383        S  0.99832465  0.51286845  0.33019626    -0.33500
S384        S  0.02546217  0.49149953  0.18742533    -0.33500
H385        H  0.06486735  0.48693422  0.18854818     0.27900
H386        H  0.02637578  0.48753096  0.33946006     0.27900
H387        H  0.95022713  0.51779352  0.28005352     0.18500
H388        H  0.07668577  0.48862539  0.23834419     0.18500
C389        C  0.79232331  0.50740877  0.15792645    -0.07300
C390        C  0.75503572  0.51174372  0.16868774    -0.18500
C391        C  0.72374543  0.51197295  0.14889913     0.09900
C392        C  0.72933737  0.50845629  0.11728113    -0.07300
C393        C  0.76678386  0.50799262  0.10647170    -0.18500
C394        C  0.79796786  0.50702296  0.12622786     0.09900
S395        S  0.67717172  0.51137148  0.16552730    -0.33500
S396        S  0.84378943  0.49904929  0.10963074    -0.33500
H397        H  0.86460567  0.51289189  0.13444870     0.27900
H398        H  0.65821565  0.52390601  0.13961989     0.27900
H399        H  0.74984909  0.51072720  0.19286292     0.18500
H400        H  0.77170146  0.50395562  0.08243087     0.18500
C401        C  0.80813552  0.39216036  0.47359988    -0.07300
C402        C  0.79477434  0.37408635  0.99463830    -0.18500
C403        C  0.76507073  0.38260150  0.01424109     0.09900
C404        C  0.74809837  0.41873614  0.01305479    -0.07300
C405        C  0.75717638  0.43506044  0.48600278    -0.18500
C406        C  0.78590533  0.42360141  0.46624066     0.09900
S407        S  0.75300164  0.34715027  0.04172905    -0.33500
S408        S  0.79412525  0.45101446  0.43264900    -0.33500
H409        H  0.81385814  0.42283998  0.41659175     0.27900
H410        H  0.75505252  0.37249378  0.06642474     0.27900
H411        H  0.80934924  0.34759889  0.99711582     0.18500
H412        H  0.74015354  0.45927505  0.48024113     0.18500
C413        C  0.92357488  0.40594091  0.05563056    -0.07300
C414        C  0.93645113  0.43770546  0.07174616    -0.18500
C415        C  0.93027679  0.44060808  0.10286351     0.09900
C416        C  0.91032644  0.41161150  0.11774586    -0.07300
C417        C  0.89552134  0.38112482  0.10126485    -0.18500
C418        C  0.90161847  0.37815979  0.07030204     0.09900
S419        S  0.94640474  0.48246238  0.12237102    -0.33500
S420        S  0.87927107  0.33917279  0.05068626    -0.33500
H421        H  0.87383611  0.35848214  0.02340042     0.27900
H422        H  0.97185459  0.46212573  0.14018691     0.27900
H423        H  0.95211524  0.45968799  0.06026412     0.18500
H424        H  0.87884617  0.35964626  0.11259138     0.18500
C425        C  0.91445086  0.41830586  0.36684853    -0.07300
C426        C  0.93278137  0.39525417  0.34545282    -0.18500
C427        C  0.93439000  0.40503029  0.31506000     0.09900
C428        C  0.91735949  0.43890254  0.30588427    -0.07300
C429        C  0.90156516  0.46333513  0.32761477    -0.18500
C430        C  0.89978899  0.45345176  0.35805275     0.09900
S431        S  0.95626419  0.37255308  0.28868194    -0.33500
S432        S  0.87601796  0.48461887  0.38445077    -0.33500
H433        H  0.87235698  0.51552374  0.36491773     0.27900
H434        H  0.95093815  0.34019510  0.30643678     0.27900
H435        H  0.94541888  0.36899536  0.35249602     0.18500
H436        H  0.88888407  0.48951037  0.32040923     0.18500
C437        C  0.00755591  0.22776211  0.35929629    -0.07300
C438        C  0.01399601  0.22207101  0.39020665    -0.18500
C439        C  0.01185801  0.25203276  0.41143136     0.09900
C440        C  0.00391354  0.28920304  0.40175961    -0.07300
C441        C  0.00334311  0.29570439  0.37043913    -0.18500
C442        C  0.00588261  0.26564906  0.34933857     0.09900
S443        S  0.01394916  0.24010001  0.45091278    -0.33500
S444        S  0.00324951  0.27682372  0.30979618    -0.33500
H445        H  0.02077257  0.24341030  0.29975944     0.27900
H446        H  0.02635539  0.27596204  0.46074006     0.27900
H447        H  0.01740652  0.19367586  0.39822904     0.18500
H448        H  0.99754667  0.32386864  0.36234582     0.18500
C449        C  0.91399349  0.24937429  0.26196656    -0.07300
C450        C  0.94340431  0.26679117  0.24568258    -0.18500
C451        C  0.93745300  0.29922567  0.22881060     0.09900
C452        C  0.90115844  0.31542111  0.22808754    -0.07300
C453        C  0.87104426  0.29674771  0.24229504    -0.18500
C454        C  0.87684349  0.26399011  0.25929721     0.09900
S455        S  0.97762260  0.31861804  0.20889795    -0.33500
S456        S  0.83644616  0.24275355  0.27790404    -0.33500
H457        H  0.80838215  0.26354948  0.26311194     0.27900
H458        H  0.95653715  0.33255514  0.18452236     0.27900
H459        H  0.97172030  0.25543152  0.24630208     0.18500
H460        H  0.84321530  0.30912293  0.24146884     0.18500
C461        C  0.20090052  0.61872893  0.04347888    -0.07300
C462        C  0.22714135  0.59294481  0.05450140    -0.18500
C463        C  0.26041701  0.58521378  0.03842866     0.09900
C464        C  0.26710041  0.60310379  0.01026158    -0.07300
C465        C  0.23356476  0.60892707  0.49003554    -0.18500
C466        C  0.19999116  0.61747484  0.50479975     0.09900
S467        S  0.29241682  0.55202258  0.05502563    -0.33500
S468        S  0.16223105  0.63583140  0.48199589    -0.33500
H469        H  0.14773749  0.65955969  0.50467175     0.27900
H470        H  0.32394831  0.57606681  0.05185705     0.27900
H471        H  0.22096714  0.57769335  0.07512148     0.18500
H472        H  0.23545073  0.61363237  0.46586072     0.18500
C473        C  0.00705034  0.53682691  0.03177348    -0.07300
C474        C  0.99529628  0.54038587  0.00152926    -0.18500
C475        C  0.99494585  0.50943757  0.98111309     0.09900
C476        C  0.00334057  0.47060173  0.49062194    -0.07300
C477        C  0.01720896  0.46913574  0.02099196    -0.18500
C478        C  0.01816598  0.50012988  0.04127887     0.09900
S479        S  0.98638902  0.51759070  0.44091806    -0.33500
S480        S  0.03376734  0.49007201  0.07919989    -0.33500
H481        H  0.01076805  0.51722247  0.09335426     0.27900
H482        H  0.01123591  0.48982231  0.42981357     0.27900
H483        H  0.98841080  0.56810787  0.99302989     0.18500
H484        H  0.02442192  0.44148190  0.02944984     0.18500
C485        C  0.08755222  0.59083900  0.40031645    -0.07300
C486        C  0.06161746  0.61855971  0.40881903    -0.18500
C487        C  0.05078281  0.62294471  0.43907980     0.09900
C488        C  0.06705572  0.59925001  0.46118693    -0.07300
C489        C  0.08990888  0.56906622  0.45185823    -0.18500
C490        C  0.09988413  0.56438250  0.42163034     0.09900
S491        S  0.01663797  0.65901392  0.44861556    -0.33500
S492        S  0.12849439  0.52423526  0.41170799    -0.33500
H493        H  0.11563106  0.52067560  0.38171236     0.27900
H494        H  0.00903487  0.67076408  0.41894157     0.27900
H495        H  0.05141870  0.63796682  0.39194148     0.18500
H496        H  0.10135033  0.54973223  0.46828980     0.18500
C497        C  0.09824299  0.58061176  0.15007908    -0.07300
C498        C  0.12869546  0.55866781  0.15909652    -0.18500
C499        C  0.13288971  0.54878238  0.18935656     0.09900
C500        C  0.10732405  0.56341177  0.21132004    -0.07300
C501        C  0.07470304  0.58185150  0.20148729    -0.18500
C502        C  0.06940456  0.58941584  0.17093970     0.09900
S503        S  0.17113329  0.51730871  0.19794817    -0.33500
S504        S  0.02515432  0.60973055  0.15974618    -0.33500
H505        H  0.02597538  0.59604343  0.12975577     0.27900
H506        H  0.14950836  0.49551952  0.21820953     0.27900
H507        H  0.14996715  0.55029056  0.14270728     0.18500
H508        H  0.05349767  0.59108021  0.21761804     0.18500
C509        C  0.00717743  0.97167971  0.24083331    -0.07300
C510        C  0.00134489  0.96960199  0.27236524    -0.18500
C511        C  0.00205106  0.00193413  0.29128521     0.09900
C512        C  0.00707668  0.03846075  0.27885439    -0.07300
C513        C  0.01313019  0.04061016  0.24733614    -0.18500
C514        C  0.01301980  0.00815349  0.22843932     0.09900
S515        S  0.99778220  0.99437318  0.33146155    -0.33500
S516        S  0.01875072  0.01557623  0.18838351    -0.33500
H517        H  0.99502094  0.98536984  0.17962044     0.27900
H518        H  0.01974476  0.02604208  0.33988452     0.27900
H519        H  0.99810629  0.94220002  0.28278380     0.18500
H520        H  0.01583636  0.06807931  0.23691130     0.18500
C521        C  0.00913644  0.72135648  0.11848813    -0.07300
C522        C  0.00571485  0.71436003  0.14958676    -0.18500
C523        C  0.00465263  0.74406053  0.17102909     0.09900
C524        C  0.00856875  0.78207195  0.16170423    -0.07300
C525        C  0.00762475  0.78922956  0.13048849    -0.18500
C526        C  0.00695737  0.75941420  0.10901817     0.09900
S527        S  0.00309547  0.73150695  0.21039343    -0.33500
S528        S  0.00749750  0.77153365  0.06957410    -0.33500
H529        H  0.99153413  0.73719450  0.05946678     0.27900
H530        H  0.98838450  0.76624538  0.22047623     0.27900
H531        H  0.00723955  0.68572628  0.15753366     0.18500
H532        H  0.01084299  0.81800461  0.12268856     0.18500
C533        C  0.10415392  0.69648369  0.30088125    -0.07300
C534        C  0.13320515  0.72317844  0.29786737    -0.18500
C535        C  0.12661116  0.75767940  0.28377429     0.09900
C536        C  0.09033819  0.76515986  0.27182147    -0.07300
C537        C  0.06035893  0.74063127  0.27877470    -0.18500
C538        C  0.06684245  0.70632609  0.29312707     0.09900
S539        S  0.16561147  0.79056641  0.28185866    -0.33500
S540        S  0.02732611  0.67519183  0.30104807    -0.33500
H541        H  0.99960088  0.69601950  0.28589814     0.27900
H542        H  0.14315049  0.82300011  0.28539815     0.27900
H543        H  0.16151326  0.71644045  0.30517914     0.18500
H544        H  0.03205257  0.74740875  0.27162351     0.18500
C545        C  0.76850236  0.42891724  0.26580241    -0.07300
C546        C  0.74375363  0.45923163  0.27001903    -0.18500
C547        C  0.70988198  0.45497240  0.28584817     0.09900
C548        C  0.69882759  0.41876751  0.29643734    -0.07300
C549        C  0.72477456  0.38901249  0.29406309    -0.18500
C550        C  0.75981747  0.39400071  0.27972202     0.09900
S551        S  0.68270177  0.49733713  0.29182691    -0.33500
S552        S  0.79236614  0.35512159  0.28081775    -0.33500
H553        H  0.82480133  0.37804169  0.28411175     0.27900
H554        H  0.67262632  0.48824999  0.32174919     0.27900
H555        H  0.75053611  0.48660646  0.26055327     0.18500
H556        H  0.71756918  0.36146342  0.30298279     0.18500
C557        C  0.58139448  0.41941297  0.21698154    -0.07300
C558        C  0.56632129  0.44887224  0.19999992    -0.18500
C559        C  0.57470417  0.45197223  0.16920434     0.09900
C560        C  0.59779900  0.42451900  0.15533807    -0.07300
C561        C  0.61391598  0.39603236  0.17272391    -0.18500
C562        C  0.60660013  0.39366784  0.20344872     0.09900
S563        S  0.55701033  0.49219316  0.14915116    -0.33500
S564        S  0.63156274  0.35813342  0.22423947    -0.33500
H565        H  0.63414461  0.37917132  0.25125094     0.27900
H566        H  0.59008376  0.49809677  0.13209501     0.27900
H567        H  0.54819935  0.46946214  0.21074662     0.18500
H568        H  0.63282259  0.37568111  0.16232703     0.18500
C569        C  0.60068096  0.42649456  0.40504534    -0.07300
C570        C  0.62894891  0.40830041  0.42142696    -0.18500
C571        C  0.63274027  0.41418224  0.45229288     0.09900
C572        C  0.60869617  0.43995901  0.46701550    -0.07300
C573        C  0.57964741  0.45739093  0.45104719    -0.18500
C574        C  0.57509441  0.45066191  0.42009501     0.09900
S575        S  0.66769834  0.38671818  0.47174571    -0.33500
S576        S  0.53552295  0.47232246  0.40165979    -0.33500
H577        H  0.52777930  0.44163479  0.38218533     0.27900
H578        H  0.64776112  0.38445725  0.49920203     0.27900
H579        H  0.64792560  0.38877601  0.41012241     0.18500
H580        H  0.56053119  0.47620803  0.46270554     0.18500
C581        C  0.50658530  0.23789872  0.40937735    -0.07300
C582        C  0.51047268  0.27554366  0.41972214    -0.18500
C583        C  0.51231217  0.30646222  0.39977370     0.09900
C584        C  0.50932540  0.30062161  0.36814920    -0.07300
C585        C  0.50173961  0.26340268  0.35792679    -0.18500
C586        C  0.50028084  0.23233836  0.37800656     0.09900
S587        S  0.52385148  0.35214887  0.41584759    -0.33500
S588        S  0.49449188  0.18580203  0.36178781    -0.33500
H589        H  0.48160760  0.16852791  0.38842880     0.27900
H590        H  0.51022673  0.37340414  0.39154798     0.27900
H591        H  0.51564615  0.28065992  0.44340090     0.18500
H592        H  0.50047153  0.25788982  0.33379189     0.18500
C593        C  0.58874195  0.25613862  0.01401035    -0.07300
C594        C  0.56773472  0.28813479  0.50493044    -0.18500
C595        C  0.56585415  0.31720875  0.03150203     0.09900
C596        C  0.60101712  0.32461714  0.04589198    -0.07300
C597        C  0.62801239  0.29572409  0.04655952    -0.18500
C598        C  0.62150063  0.26105463  0.03186436     0.09900
S599        S  0.55191130  0.36348965  0.50173699    -0.33500
S600        S  0.65449451  0.22369824  0.03876492    -0.33500
H601        H  0.62768716  0.19421420  0.03686746     0.27900
H602        H  0.52223616  0.34347711  0.48762006     0.27900
H603        H  0.54787502  0.28615224  0.48660181     0.18500
H604        H  0.65432989  0.30004530  0.05860013     0.18500
C605        C  0.31164962  0.62670457  0.22969303    -0.07300
C606        C  0.29137811  0.65499416  0.24476385    -0.18500
C607        C  0.25805471  0.64634553  0.26050192     0.09900
C608        C  0.24558772  0.60813148  0.26223516    -0.07300
C609        C  0.26409282  0.58086942  0.24437717    -0.18500
C610        C  0.29633586  0.58985553  0.22780909     0.09900
S611        S  0.23358025  0.68538778  0.27783420    -0.33500
S612        S  0.31701424  0.55280368  0.20495570    -0.33500
H613        H  0.33206024  0.57714563  0.18291436     0.27900
H614        H  0.19835040  0.67456903  0.26569016     0.27900
H615        H  0.30228259  0.68365326  0.24526631     0.18500
H616        H  0.25393621  0.55192441  0.24365712     0.18500
C617        C  0.50183146  0.54758716  0.23955625    -0.07300
C618        C  0.51482306  0.55180658  0.26954173    -0.18500
C619        C  0.51378538  0.52183736  0.29054906     0.09900
C620        C  0.50160393  0.48489668  0.28165337    -0.07300
C621        C  0.48782648  0.48083230  0.25194138    -0.18500
C622        C  0.48744321  0.51113672  0.23126151     0.09900
S623        S  0.52665154  0.53354934  0.32892966    -0.33500
S624        S  0.46874703  0.50029787  0.19432566    -0.33500
H625        H  0.49397494  0.52421363  0.17904105     0.27900
H626        H  0.49934875  0.50951389  0.34190683     0.27900
H627        H  0.52393662  0.57947670  0.27741369     0.18500
H628        H  0.47858105  0.45318467  0.24411916     0.18500
C629        C  0.44386557  0.61935662  0.30902734    -0.07300
C630        C  0.43151486  0.58443608  0.32046053    -0.18500
C631        C  0.42417418  0.57995141  0.35131385     0.09900
C632        C  0.42819597  0.61130373  0.37089580    -0.07300
C633        C  0.44206648  0.64544016  0.36012268    -0.18500
C634        C  0.45044312  0.65004730  0.32958567     0.09900
S635        S  0.40932276  0.53388349  0.36403844    -0.33500
S636        S  0.46735580  0.69626532  0.31815396    -0.33500
H637        H  0.47164902  0.71254514  0.34710725     0.27900
H638        H  0.41621821  0.53936394  0.39505102     0.27900
H639        H  0.42738054  0.56050636  0.30532007     0.18500
H640        H  0.44486668  0.66908058  0.37573532     0.18500
C641        C  0.40358702  0.61566137  0.11962434    -0.07300
C642        C  0.38367313  0.64161453  0.10187452    -0.18500
C643        C  0.38342595  0.63891021  0.07044862     0.09900
C644        C  0.40406001  0.61001135  0.05620132    -0.07300
C645        C  0.42363566  0.58379301  0.07368149    -0.18500
C646        C  0.42343609  0.58611533  0.10519184     0.09900
S647        S  0.35555329  0.67256617  0.05012112    -0.33500
S648        S  0.45082847  0.55208476  0.12530550    -0.33500
H649        H  0.41961639  0.53918850  0.14217626     0.27900
H650        H  0.34435485  0.64789619  0.02668037     0.27900
H651        H  0.36822064  0.66446321  0.11261634     0.18500
H652        H  0.43912211  0.56121582  0.06262989     0.18500
C653        C  0.50699880  0.98711255  0.03318374    -0.07300
C654        C  0.50665210  0.98196789  0.50116876    -0.18500
C655        C  0.50237168  0.01206642  0.48069952     0.09900
C656        C  0.50045555  0.04868965  0.99109755    -0.07300
C657        C  0.49275335  0.05354505  0.02220308    -0.18500
C658        C  0.49700090  0.02401526  0.04312093     0.09900
S659        S  0.50694500  0.00100902  0.44094644    -0.33500
S660        S  0.49102888  0.03596399  0.08258865    -0.33500
H661        H  0.51751510  0.00961386  0.09293643     0.27900
H662        H  0.48157845  0.02886929  0.43136273     0.27900
H663        H  0.51266159  0.95411251  0.49210096     0.18500
H664        H  0.48586305  0.08140923  0.03081833     0.18500
C665        C  0.50178836  0.79664662  0.11243941    -0.07300
C666        C  0.49589420  0.75940466  0.10174007    -0.18500
C667        C  0.49648165  0.72802824  0.12119396     0.09900
C668        C  0.50285605  0.73326719  0.15253711    -0.07300
C669        C  0.51267453  0.76994917  0.16267625    -0.18500
C670        C  0.51256301  0.80134899  0.14306452     0.09900
S671        S  0.48360033  0.68256215  0.10541632    -0.33500
S672        S  0.52196728  0.84726079  0.15930795    -0.33500
H673        H  0.53238327  0.86454332  0.13200169     0.27900
H674        H  0.49936979  0.66096216  0.12868740     0.27900
H675        H  0.48703827  0.75503920  0.07848912     0.18500
H676        H  0.51684667  0.77487204  0.18668905     0.18500
C677        C  0.38684089  0.72148819  0.46960914    -0.07300
C678        C  0.42235853  0.73906060  0.46651163    -0.18500
C679        C  0.43227864  0.77092800  0.48355135     0.09900
C680        C  0.40998045  0.78578570  0.00752424    -0.07300
C681        C  0.37321776  0.77045497  0.00922378    -0.18500
C682        C  0.36148406  0.74078936  0.99017067     0.09900
S683        S  0.47802988  0.79139638  0.47606561    -0.33500
S684        S  0.31298753  0.72537529  0.99311321    -0.33500
H685        H  0.30813913  0.72165909  0.96162666     0.27900
H686        H  0.46328849  0.82784871  0.47274035     0.27900
H687        H  0.44339632  0.72694748  0.45149211     0.18500
H688        H  0.35351512  0.78104088  0.02593321     0.18500
C689        C  0.41442197  0.82700039  0.29677156    -0.07300
C690        C  0.38629355  0.79902659  0.29517938    -0.18500
C691        C  0.39318478  0.76442279  0.28084914     0.09900
C692        C  0.42821692  0.75846936  0.26600762    -0.07300
C693        C  0.45737347  0.78490712  0.27010164    -0.18500
C694        C  0.45125402  0.81844293  0.28611290     0.09900
S695        S  0.35637976  0.72904296  0.28289581    -0.33500
S696        S  0.49185128  0.84860782  0.29226881    -0.33500
H697        H  0.47994918  0.86145475  0.32091219     0.27900
H698        H  0.38129475  0.69834036  0.28500544     0.27900
H699        H  0.35844115  0.80441813  0.30444599     0.18500
H700        H  0.48497154  0.77987624  0.26022995     0.18500
C701        C  0.41352948  0.93421826  0.15451018    -0.07300
C702        C  0.44058586  0.92037116  0.17441177    -0.18500
C703        C  0.44081061  0.93129573  0.20471348     0.09900
C704        C  0.41226629  0.95574471  0.21557415    -0.07300
C705        C  0.38720127  0.97203944  0.19484696    -0.18500
C706        C  0.38725267  0.96123494  0.16452041     0.09900
S707        S  0.47698916  0.91121645  0.22802437    -0.33500
S708        S  0.35115071  0.98048559  0.14050028    -0.33500
H709        H  0.34400840  0.94667710  0.12444579     0.27900
H710        H  0.48885519  0.94639298  0.23974647     0.27900
H711        H  0.46157860  0.90068168  0.16623274     0.18500
H712        H  0.36579088  0.99164580  0.20259145     0.18500
C713        C  0.41657052  0.92591709  0.40443576    -0.07300
C714        C  0.39158179  0.94188680  0.42553948    -0.18500
C715        C  0.39958931  0.94247535  0.45622506     0.09900
C716        C  0.43298915  0.92548004  0.46643722    -0.07300
C717        C  0.45863747  0.91029679  0.44533069    -0.18500
C718        C  0.45069440  0.91007337  0.41445805     0.09900
S719        S  0.36437793  0.96228889  0.48106423    -0.33500
S720        S  0.48334204  0.88608170  0.38967575    -0.33500
H721        H  0.45489122  0.86652743  0.37362522     0.27900
H722        H  0.38925531  0.98996709  0.49271064     0.27900
H723        H  0.36507657  0.95350232  0.41811039     0.18500
H724        H  0.48430981  0.89699789  0.45307239     0.18500
C725        C  0.26742235  0.91594451  0.26192837    -0.07300
C726        C  0.24929808  0.94306729  0.24420931    -0.18500
C727        C  0.21744641  0.93391597  0.22711342     0.09900
C728        C  0.20230512  0.89692011  0.22805245    -0.07300
C729        C  0.22202498  0.86894383  0.24344027    -0.18500
C730        C  0.25399918  0.87794360  0.26067575     0.09900
S731        S  0.19735227  0.97078495  0.20448985    -0.33500
S732        S  0.27431548  0.83977880  0.28171759    -0.33500
H733        H  0.26858877  0.85790647  0.30983684     0.27900
H734        H  0.18419849  0.94599752  0.18172665     0.27900
H735        H  0.25974181  0.97191407  0.24375944     0.18500
H736        H  0.21090329  0.84038343  0.24385954     0.18500
C737        C  0.12643052  0.80340340  0.47757731    -0.07300
C738        C  0.15184996  0.79073329  0.00101213    -0.18500
C739        C  0.14071958  0.76370250  0.02211443     0.09900
C740        C  0.10698822  0.74268060  0.01731776    -0.07300
C741        C  0.08642947  0.74856078  0.48697162    -0.18500
C742        C  0.09751424  0.77816459  0.46812023     0.09900
S743        S  0.16879815  0.76064546  0.05596694    -0.33500
S744        S  0.07367087  0.78221667  0.43226949    -0.33500
H745        H  0.10414725  0.79957299  0.41716471     0.27900
H746        H  0.13750533  0.75957653  0.07565914     0.27900
H747        H  0.17608113  0.80857805  0.00608131     0.18500
H748        H  0.06404153  0.72956305  0.47961101     0.18500
C749        C  0.27845334  0.00616108  0.36432909    -0.07300
C750        C  0.24130198  0.00276566  0.35323803    -0.18500
C751        C  0.20972550  0.00294434  0.37280850     0.09900
C752        C  0.21483860  0.00425739  0.40449618    -0.07300
C753        C  0.25154116  0.01212899  0.41526615    -0.18500
C754        C  0.28310791  0.01375993  0.39549861     0.09900
S755        S  0.16342910  0.99922781  0.35630987    -0.33500
S756        S  0.32971634  0.02264462  0.41031296    -0.33500
H757        H  0.31924875  0.02392166  0.44103802     0.27900
H758        H  0.14343517  0.01034129  0.38243434     0.27900
H759        H  0.23694423  0.99732444  0.32930716     0.18500
H760        H  0.25605488  0.01349492  0.43942743     0.18500
C761        C  0.24625074  0.92698541  0.01359735    -0.07300
C762        C  0.25651335  0.89034003  0.02206831    -0.18500
C763        C  0.28908038  0.88384662  0.03910845     0.09900
C764        C  0.31216158  0.91479330  0.04772635    -0.07300
C765        C  0.30022541  0.95161272  0.04127873    -0.18500
C766        C  0.26774580  0.95810979  0.02430316     0.09900
S767        S  0.30152852  0.83585681  0.04797452    -0.33500
S768        S  0.25727353  0.00660022  0.01566275    -0.33500
H769        H  0.24307122  0.99926161  0.98670636     0.27900
H770        H  0.27581276  0.81788951  0.02823725     0.27900
H771        H  0.23917237  0.86661813  0.01480003     0.18500
H772        H  0.31758184  0.97556302  0.04809226     0.18500
C773        C  0.10601591  0.91023600  0.05663893    -0.07300
C774        C  0.11726407  0.93924252  0.07679612    -0.18500
C775        C  0.11682378  0.93424137  0.10804002     0.09900
C776        C  0.10458286  0.89929664  0.11967539    -0.07300
C777        C  0.09341632  0.87023860  0.09970559    -0.18500
C778        C  0.09410835  0.87507695  0.06843520     0.09900
S779        S  0.13385488  0.97219724  0.13220429    -0.33500
S780        S  0.07894948  0.83592150  0.04481048    -0.33500
H781        H  0.08449406  0.80753334  0.06638464     0.27900
H782        H  0.13574162  0.00036670  0.10999760     0.27900
H783        H  0.12708555  0.96605680  0.06811306     0.18500
H784        H  0.08337861  0.84359656  0.10867865     0.18500
C785        C  0.09711943  0.90442566  0.37011906    -0.07300
C786        C  0.12545281  0.91291219  0.34902760    -0.18500
C787        C  0.11708447  0.91666942  0.31851405     0.09900
C788        C  0.07984847  0.90997944  0.30858970    -0.07300
C789        C  0.05148489  0.90134964  0.32967477    -0.18500
C790        C  0.05973121  0.89811165  0.36026934     0.09900
S791        S  0.15560244  0.92747635  0.29339913    -0.33500
S792        S  0.02214770  0.88241052  0.38486633    -0.33500
H793        H  0.04520037  0.85850682  0.40199790     0.27900
H794        H  0.13715629  0.95839139  0.28039580     0.27900
H795        H  0.15432622  0.91731404  0.35642883     0.18500
H796        H  0.02306658  0.89497788  0.32199158     0.18500
C797        C  0.60807464  0.21065551  0.22568418    -0.07300
C798        C  0.63827002  0.22892665  0.24017525    -0.18500
C799        C  0.63256393  0.26124569  0.25825335     0.09900
C800        C  0.59547663  0.27612843  0.26141875    -0.07300
C801        C  0.56584822  0.25886974  0.24515584    -0.18500
C802        C  0.57171289  0.22662331  0.22740873     0.09900
S803        S  0.67288374  0.28116576  0.27806112    -0.33500
S804        S  0.53127688  0.20644543  0.20822624    -0.33500
H805        H  0.55195027  0.18985411  0.18438777     0.27900
H806        H  0.70001731  0.25502962  0.26801309     0.27900
H807        H  0.66594385  0.21616103  0.23905255     0.18500
H808        H  0.53751586  0.27011728  0.24659740     0.18500
C809        C  0.46856558  0.02479852  0.28512064    -0.07300
C810        C  0.46527274  0.03225075  0.25395970    -0.18500
C811        C  0.49618333  0.02896161  0.23376374     0.09900
C812        C  0.53274953  0.01911742  0.24441065    -0.07300
C813        C  0.53617603  0.01244900  0.27568269    -0.18500
C814        C  0.50529016  0.01586816  0.29588828     0.09900
S815        S  0.48621653  0.03578008  0.19421860    -0.33500
S816        S  0.51507053  0.00923785  0.33551350    -0.33500
H817        H  0.48761229  0.03494823  0.34576858     0.27900
H818        H  0.51165819  0.00804708  0.18401006     0.27900
H819        H  0.43766539  0.03816876  0.24469480     0.18500
H820        H  0.56371698  0.00618733  0.28487440     0.18500
C821        C  0.59566126  0.08967033  0.30902943    -0.07300
C822        C  0.60280207  0.06120376  0.33000830    -0.18500
C823        C  0.59958047  0.06811750  0.36098344     0.09900
C824        C  0.59095327  0.10504880  0.37127791    -0.07300
C825        C  0.58294050  0.13313948  0.34999005    -0.18500
C826        C  0.58484747  0.12581780  0.31904280     0.09900
S827        S  0.60802528  0.02894483  0.38570015    -0.33500
S828        S  0.57647267  0.16377048  0.29291778    -0.33500
H829        H  0.56582244  0.19141457  0.31430895     0.27900
H830        H  0.57143980  0.03041797  0.39818824     0.27900
H831        H  0.61101822  0.03332466  0.32215156     0.18500
H832        H  0.57585450  0.16136156  0.35759629     0.18500
C833        C  0.59070119  0.10521670  0.11947675    -0.07300
C834        C  0.55770773  0.12499551  0.11251504    -0.18500
C835        C  0.54565240  0.12843014  0.08255006     0.09900
C836        C  0.56732974  0.11180894  0.05911896    -0.07300
C837        C  0.59896022  0.09020696  0.06632598    -0.18500
C838        C  0.61061861  0.08645775  0.09613140     0.09900
S839        S  0.50231862  0.15326278  0.07480958    -0.33500
S840        S  0.65074945  0.05687402  0.10266067    -0.33500
H841        H  0.63586097  0.04104276  0.12929948     0.27900
H842        H  0.49397251  0.16383729  0.10484129     0.27900
H843        H  0.54195000  0.13862510  0.13054232     0.18500
H844        H  0.61543456  0.07687147  0.04852077     0.18500
C845        C  0.74354722  0.10960656  0.26023936    -0.07300
C846        C  0.77414256  0.12334358  0.24355128    -0.18500
C847        C  0.80887401  0.13016986  0.25718555     0.09900
C848        C  0.81302899  0.12402804  0.28857749    -0.07300
C849        C  0.78169054  0.11263595  0.30582038    -0.18500
C850        C  0.74680697  0.10504066  0.29178070     0.09900
S851        S  0.84703698  0.14477115  0.23262347    -0.33500
S852        S  0.70673783  0.08969462  0.31395558    -0.33500
H853        H  0.72460738  0.09193855  0.34231370     0.27900
H854        H  0.86910656  0.16251553  0.25485652     0.27900
H855        H  0.77140802  0.12712961  0.21932838     0.18500
H856        H  0.78512713  0.10783399  0.32981703     0.18500
C857        C  0.90898792  0.26106143  0.00483402    -0.07300
C858        C  0.93931945  0.24097309  0.01706772    -0.18500
C859        C  0.93385004  0.20714397  0.03226361     0.09900
C860        C  0.89690244  0.19281647  0.03627426    -0.07300
C861        C  0.86616492  0.21359599  0.02582415    -0.18500
C862        C  0.87276657  0.24561516  0.50793945     0.09900
S863        S  0.97563397  0.18347552  0.04540907    -0.33500
S864        S  0.83218467  0.26804613  0.49119371    -0.33500
H865        H  0.80402410  0.24594382  0.50511495     0.27900
H866        H  0.95833902  0.16679880  0.07061351     0.27900
H867        H  0.96800097  0.25123693  0.01439326     0.18500
H868        H  0.83803047  0.20304380  0.52921729     0.18500
C869        C  0.03140898  0.99656153  0.98934579    -0.07300
C870        C  0.03598152  0.00756185  0.01976789    -0.18500
C871        C  0.00515816  0.00902773  0.04023555     0.09900
C872        C  0.96805955  0.99914528  0.03040450    -0.07300
C873        C  0.96358876  0.98890156  0.99970026    -0.18500
C874        C  0.99429458  0.98819586  0.97931606     0.09900
S875        S  0.01435124  0.02135983  0.07935799    -0.33500
S876        S  0.98245150  0.98075466  0.43773103    -0.33500
H877        H  0.01636893  0.99598935  0.42631692     0.27900
H878        H  0.05350363  0.02750406  0.07651162     0.27900
H879        H  0.06439693  0.01200969  0.02813838     0.18500
H880        H  0.93562623  0.98257428  0.99108534     0.18500
C881        C  0.72548220  0.01570609  0.16389860    -0.07300
C882        C  0.71863581  0.00166487  0.13454863    -0.18500
C883        C  0.74799500  0.99862696  0.11277844     0.09900
C884        C  0.78559140  0.00938844  0.12014036    -0.07300
C885        C  0.79307105  0.01839837  0.15060117    -0.18500
C886        C  0.76377033  0.02120429  0.17236838     0.09900
S887        S  0.73494492  0.98493275  0.07493222    -0.33500
S888        S  0.77529531  0.03445309  0.21075979    -0.33500
H889        H  0.81481106  0.03382494  0.20737000     0.27900
H890        H  0.77123227  0.97340058  0.06594813     0.27900
H891        H  0.68987414  0.99576471  0.12774959     0.18500
H892        H  0.82150576  0.02689655  0.15673296     0.18500
C893        C  0.76137395  0.08900345  0.00801166    -0.07300
C894        C  0.75612828  0.12727384  0.00065543    -0.18500
C895        C  0.72352832  0.13959225  0.98604079     0.09900
C896        C  0.68933840  0.11380020  0.48115286    -0.07300
C897        C  0.69927376  0.07560254  0.48299736    -0.18500
C898        C  0.73315007  0.06453534  0.49608248     0.09900
S899        S  0.72122868  0.18913031  0.97734878    -0.33500
S900        S  0.74363117  0.01484776  0.49429109    -0.33500
H901        H  0.78058255  0.02079162  0.48356508     0.27900
H902        H  0.68388595  0.19362962  0.98675977     0.27900
H903        H  0.77715693  0.14822331  0.00712143     0.18500
H904        H  0.68029565  0.05400704  0.47416509     0.18500
C905        C  0.89985625  0.06760691  0.46000559    -0.07300
C906        C  0.92747013  0.09453563  0.45256917    -0.18500
C907        C  0.93388749  0.10494759  0.42271130     0.09900
C908        C  0.91113861  0.08973554  0.39937289    -0.07300
C909        C  0.88523298  0.06091771  0.40630795    -0.18500
C910        C  0.87973205  0.04918992  0.43633591     0.09900
S911        S  0.97257089  0.13682885  0.41600786    -0.33500
S912        S  0.84794993  0.01015371  0.44367358    -0.33500
H913        H  0.83891000  0.00178065  0.41335866     0.27900
H914        H  0.98243503  0.12145210  0.38759762     0.27900
H915        H  0.94416067  0.10802984  0.47019303     0.18500
H916        H  0.86858408  0.04836617  0.38827726     0.18500
C917        C  0.91731986  0.10075968  0.14694583    -0.07300
C918        C  0.91047133  0.06992066  0.16582176    -0.18500
C919        C  0.91960329  0.07140566  0.19664101     0.09900
C920        C  0.93583529  0.10501182  0.20885826    -0.07300
C921        C  0.94394579  0.13524975  0.18921874    -0.18500
C922        C  0.93455994  0.13354694  0.15854295     0.09900
S923        S  0.90978262  0.03020229  0.21938068    -0.33500
S924        S  0.94218023  0.17422647  0.13487930    -0.33500
H925        H  0.95104189  0.19994612  0.15831770     0.27900
H926        H  0.88966543  0.00934927  0.19739135     0.27900
H927        H  0.89730650  0.04479889  0.15629071     0.18500
H928        H  0.95659379  0.16099241  0.19803009     0.18500
O929        O  0.86436390  0.04179808  0.00157638    -0.83000
C930        C  0.89912383  0.09777704  0.61797392     0.96300
O931        O  0.92228408  0.09605198  0.59617602    -0.72100
O932        O  0.92985017  0.03327762  0.56716727    -0.75700
Al933      Al  0.91655148  0.08151732  0.55459970     1.49000
C934        C  0.92867667  0.00872502  0.54680612     0.91600
O935        O  0.83236772  0.00821023  0.57877604    -0.81900
O936        O  0.80697147  0.10892733  0.54280214    -0.75500
Al937      Al  0.84862618  0.02923764  0.53977540     1.90100
O938        O  0.80501651  0.06174558  0.59271686    -0.74600
O939        O  0.86138824  0.14872941  0.56717137    -0.74400
O940        O  0.86395825  0.09746868  0.61383787    -0.80100
O941        O  0.91083670  0.13047966  0.54171727    -0.78300
O942        O  0.86763232  0.07113389  0.55749737    -1.14400
O943        O  0.92087878  0.06548638  0.01085434    -0.73600
C944        C  0.89564155  0.05460400  0.99226555     0.97100
C945        C  0.80828345  0.02620550  0.59512501     0.93500
Al946      Al  0.83685823  0.10178497  0.57756334     1.55600
O947        O  0.89605586  0.99953159  0.53740469    -0.78200
C948        C  0.88927391  0.15605715  0.55037460     0.97700
C949        C  0.78948496  0.08275041  0.52916070     0.92500
O950        O  0.79873885  0.04883858  0.53349200    -0.83600
O951        O  0.63311690  0.05822899  0.76983456    -0.83000
C952        C  0.60247544  0.10218575  0.65114093     0.96300
O953        O  0.57822699  0.09957157  0.67203894    -0.72100
O954        O  0.56684678  0.04073334  0.70378339    -0.75700
Al955      Al  0.58148720  0.08987575  0.71407909     1.49000
C956        C  0.56749028  0.01719900  0.72452837     0.91600
O957        O  0.66630809  0.01355156  0.69502415    -0.81900
O958        O  0.69310594  0.11571611  0.72842267    -0.75500
Al959      Al  0.64744204  0.03731648  0.73256883     1.90100
O960        O  0.69393480  0.06634426  0.67966064    -0.74600
O961        O  0.64124789  0.15581809  0.70383628    -0.74400
O962        O  0.63725374  0.10423089  0.65691453    -0.80100
O963        O  0.58741061  0.14052431  0.72414285    -0.78300
O964        O  0.63054792  0.07864375  0.71322879    -1.14400
O965        O  0.57810111  0.08283106  0.75724438    -0.73600
C966        C  0.60258375  0.07434033  0.77694558     0.97100
C967        C  0.69159533  0.03051676  0.67917530     0.93500
Al968      Al  0.66344337  0.10797969  0.69372097     1.55600
O969        O  0.59982177  0.00783980  0.73380590    -0.78200
C970        C  0.61166218  0.16494178  0.71785063     0.97700
C971        C  0.70887337  0.08998178  0.74295104     0.92500
O972        O  0.69710463  0.05633320  0.74116661    -0.83600
O973        O  0.18711206  0.96410929  0.49855453    -0.83000
C974        C  0.10660626  0.90064199  0.90171423     0.96300
O975        O  0.13993722  0.88957930  0.90809697    -0.72100
O976        O  0.18975000  0.94275805  0.92018592    -0.75700
Al977      Al  0.17278631  0.90042472  0.94188013     1.49000
C978        C  0.18908248  0.97808158  0.92381314     0.91600
O979        O  0.09553590  0.99266313  0.96801570    -0.81900
O980        O  0.09504976  0.90071309  0.50466828    -0.75500
Al981      Al  0.14066861  0.97617097  0.47961742     1.90100
O982        O  0.06129633  0.94238002  0.97385237    -0.74600
O983        O  0.10446259  0.85197183  0.95299124    -0.74400
O984        O  0.08368361  0.91175574  0.92199795    -0.80100
O985        O  0.16389092  0.85375447  0.96216172    -0.78300
O986        O  0.13626063  0.92495737  0.96118725    -1.14400
O987        O  0.20978850  0.90760040  0.97180868    -0.73600
C988        C  0.20975823  0.93711471  0.49606443     0.97100
C989        C  0.06414150  0.97729539  0.97471708     0.93500
Al990      Al  0.09128172  0.90214499  0.96299210     1.55600
O991        O  0.16981705  0.99309863  0.94521135    -0.78200
C992        C  0.13337397  0.83575242  0.96187933     0.97700
C993        C  0.10434751  0.92608329  0.52392436     0.92500
O994        O  0.11743861  0.95815885  0.51587221    -0.83600
O995        O  0.30786604  0.95965934  0.78537132    -0.83000
C996        C  0.40537237  0.92207659  0.87419263     0.96300
O997        O  0.37046825  0.91979148  0.86880750    -0.72100
O998        O  0.31056900  0.94959924  0.84472024    -0.75700
Al999      Al  0.34600813  0.91164537  0.83191788     1.49000
C1000       C  0.31086371  0.98540796  0.84639788     0.91600
O1001       O  0.40137113  0.01699830  0.79367381    -0.81900
O1002       O  0.42902767  0.94627984  0.76907531    -0.75500
Al1003     Al  0.35588701  0.98360482  0.79403056     1.90100
O1004       O  0.43553719  0.98612217  0.82416802    -0.74600
O1005       O  0.42362369  0.88658635  0.79985453    -0.74400
O1006       O  0.42948941  0.92470286  0.85324992    -0.80100
O1007       O  0.37428510  0.86633068  0.82423476    -0.78300
O1008       O  0.37615790  0.94367890  0.81270958    -1.14400
O1009       O  0.31874701  0.90056778  0.79601366    -0.73600
C1010       C  0.29992625  0.92487672  0.78200132     0.97100
C1011       C  0.43406025  0.00992156  0.80368093     0.93500
Al1012     Al  0.42570249  0.93659805  0.81178193     1.55600
O1013       O  0.33553013  0.00463249  0.83174696    -0.78200
C1014       C  0.40394237  0.85987674  0.80930994     0.97700
C1015       C  0.40403511  0.95299113  0.74939643     0.92500
O1016       O  0.37176055  0.96508339  0.75658323    -0.83600
O1017       O  0.45895368  0.88802051  0.00563873    -0.83000
C1018       C  0.40921437  0.91639526  0.62380384     0.96300
O1019       O  0.40989761  0.94085958  0.60317194    -0.72100
O1020       O  0.46997496  0.95249112  0.57226981    -0.75700
Al1021     Al  0.42108876  0.93818723  0.56124833     1.49000
C1022       C  0.49414977  0.95153054  0.55172417     0.91600
O1023       O  0.49560547  0.85221508  0.57983293    -0.81900
O1024       O  0.39263036  0.82961975  0.54454819    -0.75500
Al1025     Al  0.47331283  0.87172803  0.54244983     1.90100
O1026       O  0.44252570  0.82338750  0.59267161    -0.74600
O1027       O  0.35527710  0.88124794  0.57457201    -0.74400
O1028       O  0.40931504  0.88142768  0.61790774    -0.80100
O1029       O  0.37078623  0.93211953  0.55038043    -0.78300
O1030       O  0.43211320  0.88925286  0.56170330    -1.14400
O1031       O  0.43586398  0.94355873  0.01854837    -0.73600
C1032       C  0.44457208  0.91925191  0.99871107     0.97100
C1033       C  0.47814015  0.82639550  0.59459091     0.93500
Al1034     Al  0.40242520  0.85665531  0.58090863     1.55600
O1035       O  0.50379089  0.91897700  0.54252498    -0.78200
C1036       C  0.34608868  0.90951080  0.55939950     0.97700
C1037       C  0.41773000  0.81425483  0.52839937     0.92500
O1038       O  0.45215905  0.82253783  0.53285243    -0.83600
O1039       O  0.46839523  0.64981974  0.76678989    -0.83000
C1040       C  0.40842074  0.62269699  0.65261999     0.96300
O1041       O  0.41121446  0.59708739  0.67246060    -0.72100
O1042       O  0.47221717  0.58164910  0.70118183    -0.75700
Al1043     Al  0.42564730  0.59905014  0.71461292     1.49000
C1044       C  0.49805682  0.58124486  0.72015288     0.91600
O1045       O  0.50261476  0.67994004  0.68884567    -0.81900
O1046       O  0.40714590  0.70898961  0.73331121    -0.75500
Al1047     Al  0.48415302  0.66263397  0.72847640     1.90100
O1048       O  0.45009688  0.71203157  0.68111133    -0.74600
O1049       O  0.36201795  0.66027200  0.70792659    -0.74400
O1050       O  0.40938669  0.65717137  0.65986646    -0.80100
O1051       O  0.37676050  0.60654918  0.72783035    -0.78300
O1052       O  0.43951000  0.64734814  0.71315019    -1.14400
O1053       O  0.43745171  0.59648467  0.75781494    -0.73600
C1054       C  0.45082659  0.62126521  0.77619431     0.97100
C1055       C  0.48471705  0.70644559  0.67544326     0.93500
Al1056     Al  0.40963050  0.68168261  0.69690297     1.55600
O1057       O  0.51104564  0.61333723  0.72791241    -0.78200
C1058       C  0.35275477  0.63070489  0.72154756     0.97700
C1059       C  0.43532218  0.72352497  0.74627737     0.92500
O1060       O  0.46838388  0.71336746  0.73886355    -0.83600
O1061       O  0.54446939  0.21217844  0.49154820    -0.83000
C1062       C  0.59667673  0.11585601  0.90252092     0.96300
O1063       O  0.59785901  0.15088878  0.90805827    -0.72100
O1064       O  0.56230886  0.20916472  0.93044759    -0.75700
Al1065     Al  0.60185560  0.17698396  0.94499404     1.49000
C1066       C  0.52667832  0.20659311  0.92777859     0.91600
O1067       O  0.49784512  0.11611967  0.98134810    -0.81900
O1068       O  0.56434359  0.09264357  0.50810629    -0.75500
Al1069     Al  0.52372833  0.16334733  0.48225299     1.90100
O1070       O  0.53210914  0.08272571  0.95206492    -0.74600
O1071       O  0.62983193  0.10155317  0.97773963    -0.74400
O1072       O  0.59398254  0.09206348  0.92352438    -0.80100
O1073       O  0.64857349  0.15214893  0.95458071    -0.78300
O1074       O  0.57051682  0.14525687  0.96349963    -1.14400
O1075       O  0.60870522  0.20638561  0.98096866    -0.73600
C1076       C  0.57849001  0.22155384  0.49619136     0.97100
C1077       C  0.50729428  0.08358894  0.97205042     0.93500
Al1078     Al  0.58046275  0.09624195  0.96497989     1.55600
O1079       O  0.50813201  0.18137620  0.94246108    -0.78200
C1080       C  0.65585265  0.12334008  0.96992101     0.97700
C1081       C  0.55552851  0.11752041  0.52774316     0.92500
O1082       O  0.54108045  0.14867710  0.52048367    -0.83600
O1083       O  0.55087852  0.31567962  0.78569625    -0.83000
C1084       C  0.59686102  0.41536101  0.87281461     0.96300
O1085       O  0.60078820  0.38095497  0.86641918    -0.72100
O1086       O  0.56251043  0.32393981  0.84577094    -0.75700
Al1087     Al  0.60336341  0.35414434  0.83023083     1.49000
C1088       C  0.52679727  0.32672893  0.84727350     0.91600
O1089       O  0.50239385  0.41379782  0.78842369    -0.81900
O1090       O  0.57564168  0.43651088  0.76678942    -0.75500
Al1091     Al  0.53219701  0.36649099  0.79211938     1.90100
O1092       O  0.53274270  0.44839804  0.81967051    -0.74600
O1093       O  0.63341394  0.43179173  0.80073239    -0.74400
O1094       O  0.59145698  0.43983647  0.85267207    -0.80100
O1095       O  0.64990576  0.37760260  0.81892219    -0.78300
O1096       O  0.57295116  0.38562551  0.81118548    -1.14400
O1097       O  0.61036528  0.32307380  0.79577388    -0.73600
C1098       C  0.58461407  0.30471853  0.78277071     0.97100
C1099       C  0.50986061  0.44668412  0.79836143     0.93500
Al1100     Al  0.58241283  0.43525407  0.81021517     1.55600
O1101       O  0.50902648  0.35000281  0.83030440    -0.78200
C1102       C  0.65831820  0.40804944  0.80598917     0.97700
C1103       C  0.56954902  0.41003707  0.74766375     0.92500
O1104       O  0.55414394  0.37899828  0.75495186    -0.83600
O1105       O  0.05314568  0.87025601  0.76899396    -0.83000
C1106       C  0.10197385  0.89718724  0.65159105     0.96300
O1107       O  0.09808018  0.92274367  0.67145049    -0.72100
O1108       O  0.03984665  0.93668657  0.70335993    -0.75700
Al1109     Al  0.08847174  0.92108617  0.71355113     1.49000
C1110       C  0.01489383  0.93553742  0.72320560     0.91600
O1111       O  0.01217945  0.83761310  0.69304317    -0.81900
O1112       O  0.11122681  0.81006253  0.73124065    -0.75500
Al1113     Al  0.03383531  0.85580265  0.73141940     1.90100
O1114       O  0.06487562  0.80777629  0.68054739    -0.74600
O1115       O  0.15364196  0.85999191  0.70564635    -0.74400
O1116       O  0.10469636  0.86285263  0.65850594    -0.80100
O1117       O  0.13939183  0.91571589  0.72287968    -0.78300
O1118       O  0.07648252  0.87207341  0.71325361    -1.14400
O1119       O  0.08086326  0.92465023  0.75673209    -0.73600
C1120       C  0.07044670  0.90038029  0.77617723     0.97100
C1121       C  0.02951302  0.81201588  0.67775657     0.93500
Al1122     Al  0.10613408  0.83811035  0.69539687     1.55600
O1123       O  0.00537156  0.90324001  0.73246153    -0.78200
C1124       C  0.16337393  0.89083790  0.71748954     0.97700
C1125       C  0.08429807  0.79534841  0.74556930     0.92500
O1126       O  0.05093768  0.80585185  0.74042999    -0.83600
O1127       O  0.05657194  0.64359355  0.00499371    -0.83000
C1128       C  0.09958016  0.59791187  0.61868603     0.96300
O1129       O  0.10299928  0.57660597  0.59570057    -0.72100
O1130       O  0.03854546  0.56908673  0.56880112    -0.75700
Al1131     Al  0.08613540  0.58344044  0.55474724     1.49000
C1132       C  0.01283441  0.57063556  0.54957115     0.91600
O1133       O  0.01237642  0.66872714  0.57936476    -0.81900
O1134       O  0.11601981  0.69276539  0.54828324    -0.75500
Al1135     Al  0.03459411  0.65131053  0.54125479     1.90100
O1136       O  0.06569092  0.69461102  0.59521369    -0.74600
O1137       O  0.15231276  0.63615403  0.57192986    -0.74400
O1138       O  0.09621901  0.63312152  0.61615134    -0.80100
O1139       O  0.13402898  0.59253200  0.53977221    -0.78300
O1140       O  0.07533706  0.63207385  0.55912912    -1.14400
O1141       O  0.07745167  0.58650211  0.01319347    -0.73600
C1142       C  0.06810911  0.61235278  0.99502739     0.97100
C1143       C  0.02995732  0.69312458  0.59563068     0.93500
Al1144     Al  0.10515390  0.66165522  0.58128146     1.55600
O1145       O  0.00407350  0.60340329  0.54020433    -0.78200
C1146       C  0.15935238  0.61328274  0.55053903     0.97700
C1147       C  0.09172193  0.71059334  0.53349855     0.92500
O1148       O  0.05712758  0.70075797  0.53429248    -0.83600
O1149       O  0.95498979  0.20145423  0.78380660    -0.83000
C1150       C  0.91041542  0.09847901  0.86845562     0.96300
O1151       O  0.91380200  0.13384305  0.86605386    -0.72100
O1152       O  0.94634658  0.19516304  0.84514950    -0.75700
Al1153     Al  0.90608327  0.16311106  0.83121964     1.49000
C1154       C  0.98203615  0.19410613  0.84501340     0.91600
O1155       O  0.00533635  0.10470857  0.78851656    -0.81900
O1156       O  0.93531322  0.08265920  0.76186922    -0.75500
Al1157     Al  0.97591786  0.15220560  0.79025663     1.90100
O1158       O  0.97085469  0.06907390  0.81690933    -0.74600
O1159       O  0.87465639  0.09403195  0.79048708    -0.74400
O1160       O  0.90730255  0.07731553  0.84538724    -0.80100
O1161       O  0.85843778  0.13877552  0.82219209    -0.78300
O1162       O  0.93505687  0.13313870  0.80876219    -1.14400
O1163       O  0.89616448  0.19503698  0.79811041    -0.73600
C1164       C  0.92085774  0.21179576  0.78249972     0.97100
C1165       C  0.99680862  0.07180298  0.79776289     0.93500
Al1166     Al  0.92302559  0.08449397  0.80424498     1.55600
O1167       O  0.99923137  0.16993906  0.82826204    -0.78200
C1168       C  0.85028620  0.11558514  0.80135626     0.97700
C1169       C  0.94261261  0.10839341  0.74306177     0.92500
O1170       O  0.95605563  0.13968150  0.75197259    -0.83600
O1171       O  0.95411500  0.30304420  0.48211185    -0.83000
C1172       C  0.91207874  0.40610420  0.89905286     0.96300
O1173       O  0.90980528  0.37110888  0.90360606    -0.72100
O1174       O  0.94433650  0.31292458  0.92503049    -0.75700
Al1175     Al  0.90320192  0.34372540  0.93896156     1.49000
C1176       C  0.98007716  0.31559769  0.92491017     0.91600
O1177       O  0.00228030  0.40439374  0.98318878    -0.81900
O1178       O  0.92774580  0.42131370  0.50507583    -0.75500
Al1179     Al  0.97232995  0.35690461  0.97970269     1.90100
O1180       O  0.97166473  0.43861808  0.95237315    -0.74600
O1181       O  0.87171882  0.41910674  0.97183701    -0.74400
O1182       O  0.91277143  0.42961729  0.92056630    -0.80100
O1183       O  0.85607653  0.36694838  0.94816703    -0.78300
O1184       O  0.93231396  0.37533577  0.96012795    -1.14400
O1185       O  0.89326304  0.31262763  0.97265091    -0.73600
C1186       C  0.92023644  0.29144563  0.48360601     0.97100
C1187       C  0.99528669  0.43700129  0.97309049     0.93500
Al1188     Al  0.92228661  0.42469512  0.96224537     1.55600
O1189       O  0.99689881  0.33983959  0.94209091    -0.78200
C1190       C  0.84734450  0.39564089  0.96352341     0.97700
C1191       C  0.93458600  0.39474567  0.52336138     0.92500
O1192       O  0.95010115  0.36442254  0.51486089    -0.83600
O1193       O  0.87656400  0.45760086  0.76708882    -0.83000
C1194       C  0.90432141  0.40759598  0.64961031     0.96300
O1195       O  0.92961238  0.41139277  0.66943841    -0.72100
O1196       O  0.94479498  0.47025197  0.70118834    -0.75700
Al1197     Al  0.92735131  0.42195379  0.71142116     1.49000
C1198       C  0.94507268  0.49445734  0.72183446     0.91600
O1199       O  0.84783518  0.50087730  0.69194843    -0.81900
O1200       O  0.81408796  0.40301224  0.72814901    -0.75500
Al1201     Al  0.86395140  0.47810562  0.72984389     1.90100
O1202       O  0.81691333  0.44891451  0.67773259    -0.74600
O1203       O  0.86322263  0.35853333  0.70450632    -0.74400
O1204       O  0.86977869  0.40600366  0.65615628    -0.80100
O1205       O  0.91958301  0.37129256  0.72132489    -0.78300
O1206       O  0.87877124  0.43518991  0.71113639    -1.14400
O1207       O  0.93075756  0.43039317  0.75427229    -0.73600
C1208       C  0.90681653  0.44097508  0.77402714     0.97100
C1209       C  0.82210189  0.48437676  0.67617037     0.93500
Al1210     Al  0.84403092  0.40652509  0.69300389     1.55600
O1211       O  0.91314707  0.50487238  0.73153267    -0.78200
C1212       C  0.89331135  0.34819588  0.71678716     0.97700
C1213       C  0.79893866  0.43021855  0.74174094     0.92500
O1214       O  0.81226975  0.46308931  0.73814094    -0.83600
O1215       O  0.64575947  0.46461664  0.00548006    -0.83000
C1216       C  0.60960195  0.42456367  0.62329712     0.96300
O1217       O  0.58584062  0.43297944  0.60336391    -0.72100
O1218       O  0.58156022  0.49121692  0.57012945    -0.75700
Al1219     Al  0.59053435  0.44042892  0.56125924     1.49000
C1220       C  0.58442273  0.51255445  0.54801031     0.91600
O1221       O  0.68038022  0.50754847  0.57981466    -0.81900
O1222       O  0.69986985  0.40429176  0.54648164    -0.75500
Al1223     Al  0.66226478  0.48489421  0.54211364     1.90100
O1224       O  0.70216614  0.45270068  0.59661509    -0.74600
O1225       O  0.64404770  0.36830423  0.56803302    -0.74400
O1226       O  0.64328606  0.41684570  0.61691920    -0.80100
O1227       O  0.59014339  0.38943219  0.55271212    -0.78300
O1228       O  0.64057672  0.44592365  0.56171476    -1.14400
O1229       O  0.58728160  0.44654554  0.01741218    -0.73600
C1230       C  0.61371728  0.45129394  0.99822239     0.97100
C1231       C  0.70197830  0.48867006  0.59732642     0.93500
Al1232     Al  0.66988483  0.41330058  0.58066032     1.55600
O1233       O  0.61759958  0.51784653  0.53830418    -0.78200
C1234       C  0.61281037  0.36295281  0.55520452     0.97700
C1235       C  0.71922817  0.42838947  0.53283366     0.92500
O1236       O  0.71136552  0.46292856  0.53554925    -0.83600
O1237       O  0.20788547  0.55742987  0.78444617    -0.83000
C1238       C  0.10306653  0.59458840  0.86931382     0.96300
O1239       O  0.13843528  0.59296862  0.86644411    -0.72100
O1240       O  0.20139504  0.56604145  0.84459206    -0.75700
Al1241     Al  0.16643639  0.60352533  0.83152992     1.49000
C1242       C  0.20174875  0.53033610  0.84516355     0.91600
O1243       O  0.11352093  0.49977419  0.78918260    -0.81900
O1244       O  0.08905864  0.56802466  0.76211887    -0.75500
Al1245     Al  0.15985540  0.53256960  0.79101088     1.90100
O1246       O  0.07699296  0.53248875  0.81795975    -0.74600
O1247       O  0.09621049  0.63007825  0.79153623    -0.74400
O1248       O  0.08150862  0.59640939  0.84653338    -0.80100
O1249       O  0.13858582  0.64919794  0.82398777    -0.78300
O1250       O  0.13843768  0.57237866  0.80925446    -1.14400
O1251       O  0.19659739  0.61602716  0.79797218    -0.73600
C1252       C  0.21570110  0.59247689  0.78298619     0.97100
C1253       C  0.08018690  0.50705402  0.79839037     0.93500
Al1254     Al  0.08955289  0.58100945  0.80497653     1.55600
O1255       O  0.17811396  0.51123100  0.82918784    -0.78200
C1256       C  0.11354181  0.65633372  0.80466297     0.97700
C1257       C  0.11528962  0.56018861  0.74344584     0.92500
O1258       O  0.14725723  0.55053439  0.75275254    -0.83600
O1259       O  0.32133125  0.56152034  0.49319606    -0.83000
C1260       C  0.41198472  0.61289152  0.90138075     0.96300
O1261       O  0.37826032  0.62457584  0.90544610    -0.72100
O1262       O  0.32436368  0.57611406  0.91871874    -0.75700
Al1263     Al  0.34344814  0.61915865  0.93883930     1.49000
C1264       C  0.32370167  0.54106613  0.92305424     0.91600
O1265       O  0.41676348  0.52635515  0.96880983    -0.81900
O1266       O  0.41266561  0.62403232  0.50536215    -0.75500
Al1267     Al  0.36984731  0.54719387  0.47776444     1.90100
O1268       O  0.45088556  0.57647293  0.97633719    -0.74600
O1269       O  0.41276804  0.66678048  0.95186784    -0.74400
O1270       O  0.43378690  0.60459290  0.92306376    -0.80100
O1271       O  0.35291948  0.66756615  0.95715141    -0.78300
O1272       O  0.37790349  0.59484424  0.96004569    -1.14400
O1273       O  0.30609332  0.61653244  0.96847297    -0.73600
C1274       C  0.29953662  0.58871178  0.48808545     0.97100
C1275       C  0.44802493  0.54155557  0.97652995     0.93500
Al1276     Al  0.42309629  0.61676367  0.96360124     1.55600
O1277       O  0.34317995  0.52659052  0.94418646    -0.78200
C1278       C  0.38376443  0.68468321  0.95846760     0.97700
C1279       C  0.40171412  0.59860464  0.52384242     0.92500
O1280       O  0.38952177  0.56635743  0.51507488    -0.83600
C1281       C  0.29607197  0.51908579  0.90398744    -0.07300
C1282       C  0.30125412  0.51896066  0.87244322    -0.18500
C1283       C  0.27052364  0.51569655  0.85222463     0.09900
C1284       C  0.23302918  0.51350209  0.86337254    -0.07300
C1285       C  0.22817203  0.50975991  0.89479307    -0.18500
C1286       C  0.25902841  0.51197879  0.91498987     0.09900
S1287       S  0.27915260  0.51914997  0.81207019    -0.33500
S1288       S  0.24847518  0.51178248  0.95489763    -0.33500
H1289       H  0.28303219  0.49587367  0.96348135     0.27900
H1290       H  0.31883999  0.51849137  0.81345790     0.27900
H1291       H  0.32897243  0.52530456  0.86357489     0.18500
H1292       H  0.19989142  0.50866746  0.90398641     0.18500
C1293       C  0.54974788  0.52004667  0.52860534    -0.07300
C1294       C  0.51524114  0.50160094  0.53595686    -0.18500
C1295       C  0.48359157  0.50145858  0.51650950     0.09900
C1296       C  0.48488665  0.52104135  0.48884416    -0.07300
C1297       C  0.51736553  0.53731119  0.98069139    -0.18500
C1298       C  0.54920356  0.53709351  0.99980635     0.09900
S1299       S  0.44143842  0.47759324  0.52909197    -0.33500
S1300       S  0.59140419  0.55939167  0.98549991    -0.33500
H1301       H  0.59896471  0.57900706  0.01268837     0.27900
H1302       H  0.43074564  0.46541376  0.49994756     0.27900
H1303       H  0.51284270  0.48636315  0.55701878     0.18500
H1304       H  0.51948098  0.55224903  0.95943508     0.18500
C1305       C  0.98069372  0.50062045  0.74041409    -0.07300
C1306       C  0.97720341  0.50543646  0.77199637    -0.18500
C1307       C  0.00834806  0.50258380  0.79166874     0.09900
C1308       C  0.04534899  0.49662853  0.78005803    -0.07300
C1309       C  0.04888943  0.49148253  0.74847221    -0.18500
C1310       C  0.01744425  0.49369152  0.72872939     0.09900
S1311       S  0.99858138  0.50597059  0.83170755    -0.33500
S1312       S  0.02510101  0.49000940  0.68836490    -0.33500
H1313       H  0.06435564  0.48428746  0.68933207     0.27900
H1314       H  0.02890561  0.48308066  0.84048743     0.27900
H1315       H  0.94947448  0.50966996  0.78180528     0.18500
H1316       H  0.07684251  0.48793599  0.73896597     0.18500
C1317       C  0.79357389  0.50489229  0.65787445    -0.07300
C1318       C  0.75637580  0.50398397  0.66916343    -0.18500
C1319       C  0.72493324  0.50469511  0.64981501     0.09900
C1320       C  0.73006330  0.50669115  0.61815273    -0.07300
C1321       C  0.76706364  0.51205470  0.60714478    -0.18500
C1322       C  0.79865205  0.51126387  0.62658088     0.09900
S1323       S  0.67897963  0.49786501  0.66640766    -0.33500
S1324       S  0.84483009  0.51383397  0.60966886    -0.33500
H1325       H  0.86345319  0.52554597  0.63624729     0.27900
H1326       H  0.66025049  0.51767693  0.64355914     0.27900
H1327       H  0.75176160  0.49845178  0.69299461     0.18500
H1328       H  0.77174660  0.51287917  0.58290772     0.18500
C1329       C  0.80886520  0.40096015  0.97455157    -0.07300
C1330       C  0.79984085  0.37152669  0.49962370    -0.18500
C1331       C  0.77198627  0.38344301  0.51983595     0.09900
C1332       C  0.75039618  0.41579032  0.51313615    -0.07300
C1333       C  0.76074857  0.44465889  0.99127643    -0.18500
C1334       C  0.79083876  0.43608923  0.97204368     0.09900
S1335       S  0.76874171  0.35872729  0.55526717    -0.33500
S1336       S  0.80568804  0.47128913  0.94519469    -0.33500
H1337       H  0.82214953  0.44562922  0.92462032     0.27900
H1338       H  0.76455325  0.39172916  0.57295924     0.27900
H1339       H  0.81785868  0.34833186  0.50591363     0.18500
H1340       H  0.74734441  0.47195216  0.98929596     0.18500
C1341       C  0.92476442  0.39884603  0.55534204    -0.07300
C1342       C  0.93338297  0.43277494  0.57048531    -0.18500
C1343       C  0.92858365  0.43582526  0.60177493     0.09900
C1344       C  0.91465696  0.40457176  0.61792447    -0.07300
C1345       C  0.90467233  0.37132468  0.60269825    -0.18500
C1346       C  0.90890221  0.36834848  0.57154548     0.09900
S1347       S  0.93823576  0.48056553  0.61988200    -0.33500
S1348       S  0.89067569  0.32606888  0.55379553    -0.33500
H1349       H  0.88007924  0.34362816  0.52675645     0.27900
H1350       H  0.96229025  0.46494479  0.64156919     0.27900
H1351       H  0.94446789  0.45663753  0.55804508     0.18500
H1352       H  0.89219619  0.34801673  0.61508287     0.18500
C1353       C  0.91524187  0.41890767  0.86781488    -0.07300
C1354       C  0.93207108  0.39406163  0.84694531    -0.18500
C1355       C  0.93184167  0.40147573  0.81612407     0.09900
C1356       C  0.91398840  0.43443553  0.80599595    -0.07300
C1357       C  0.89965486  0.46066917  0.82699713    -0.18500
C1358       C  0.90059148  0.45356160  0.85784814     0.09900
S1359       S  0.95109692  0.36648282  0.79050676    -0.33500
S1360       S  0.88016812  0.48842275  0.88275784    -0.33500
H1361       H  0.91430850  0.49481494  0.89827423     0.27900
H1362       H  0.97548952  0.35043641  0.81177247     0.27900
H1363       H  0.94415979  0.36785951  0.85469676     0.18500
H1364       H  0.88684793  0.48656905  0.81925950     0.18500
C1365       C  0.00135566  0.22431737  0.86359927    -0.07300
C1366       C  0.00489155  0.21904037  0.89491233    -0.18500
C1367       C  0.00472684  0.24969570  0.91558954     0.09900
C1368       C  0.00006542  0.28719238  0.90528591    -0.07300
C1369       C  0.00059282  0.29279556  0.87380699    -0.18500
C1370       C  0.00199198  0.26207352  0.85313216     0.09900
S1371       S  0.00555707  0.23862747  0.95523810    -0.33500
S1372       S  0.00025022  0.27247428  0.81338253    -0.33500
H1373       H  0.01849272  0.23913305  0.80409670     0.27900
H1374       H  0.02035071  0.27378653  0.96459710     0.27900
H1375       H  0.00459356  0.19074666  0.90366445     0.18500
H1376       H  0.99668131  0.32104545  0.86519222     0.18500
C1377       C  0.91068462  0.24399409  0.76268760    -0.07300
C1378       C  0.93856454  0.25815298  0.74290097    -0.18500
C1379       C  0.93223034  0.29002320  0.72525600     0.09900
C1380       C  0.89766077  0.30923117  0.72779789    -0.07300
C1381       C  0.86872657  0.29353099  0.74536996    -0.18500
C1382       C  0.87449286  0.26102636  0.76266345     0.09900
S1383       S  0.96919732  0.30471247  0.69967674    -0.33500
S1384       S  0.83558439  0.24357902  0.78532440    -0.33500
H1385       H  0.80690236  0.26364115  0.77067429     0.27900
H1386       H  0.94498561  0.32150752  0.67854765     0.27900
H1387       H  0.96579936  0.24452500  0.74121000     0.18500
H1388       H  0.84222473  0.30806741  0.74690106     0.18500
C1389       C  0.19659598  0.61117256  0.53618401    -0.07300
C1390       C  0.22733849  0.59677059  0.55218027    -0.18500
C1391       C  0.26144009  0.58860075  0.53729262     0.09900
C1392       C  0.26456115  0.59452204  0.50571981    -0.07300
C1393       C  0.24123917  0.63030856  0.00032273    -0.18500
C1394       C  0.20821935  0.63793940  0.01639749     0.09900
S1395       S  0.29993238  0.57185777  0.55984548    -0.33500
S1396       S  0.17399782  0.67008136  0.00092548    -0.33500
H1397       H  0.19494366  0.68098951  0.97533115     0.27900
H1398       H  0.32623251  0.59584758  0.54591531     0.27900
H1399       H  0.22451877  0.59118318  0.57615559     0.18500
H1400       H  0.24600544  0.64469947  0.97913790     0.18500
C1401       C  0.00357009  0.53505742  0.53140363    -0.07300
C1402       C  0.99405142  0.53856334  0.50059243    -0.18500
C1403       C  0.99483426  0.50752441  0.48025089     0.09900
C1404       C  0.00519767  0.47261494  0.99084657    -0.07300
C1405       C  0.01320825  0.46709386  0.52128047    -0.18500
C1406       C  0.01351896  0.49826323  0.54145922     0.09900
S1407       S  0.98242136  0.51966661  0.94254243    -0.33500
S1408       S  0.02682462  0.48840939  0.57995021    -0.33500
H1409       H  0.00389755  0.51640494  0.59306584     0.27900
H1410       H  0.00828373  0.49402498  0.92975898     0.27900
H1411       H  0.98825369  0.56631694  0.49165008     0.18500
H1412       H  0.01916547  0.43933442  0.53015245     0.18500
C1413       C  0.08740283  0.59490789  0.89999908    -0.07300
C1414       C  0.06525772  0.62538971  0.90934210    -0.18500
C1415       C  0.05638689  0.63091256  0.94002066     0.09900
C1416       C  0.07138673  0.60586600  0.96188574    -0.07300
C1417       C  0.09107619  0.57378568  0.95180638    -0.18500
C1418       C  0.09842861  0.56771635  0.92117679     0.09900
S1419       S  0.02583492  0.66980762  0.95017571    -0.33500
S1420       S  0.12175324  0.52454378  0.91034793    -0.33500
H1421       H  0.10628518  0.52217537  0.88108687     0.27900
H1422       H  0.01659971  0.68080667  0.92061131     0.27900
H1423       H  0.05630385  0.64570143  0.89268871     0.18500
H1424       H  0.10136678  0.55335304  0.96786727     0.18500
C1425       C  0.09984479  0.58192210  0.64910063    -0.07300
C1426       C  0.13116632  0.56123513  0.65820326    -0.18500
C1427       C  0.13552925  0.55085448  0.68840098     0.09900
C1428       C  0.10878789  0.56320893  0.71041358    -0.07300
C1429       C  0.07594347  0.58130729  0.70052873    -0.18500
C1430       C  0.07086692  0.58991660  0.67007352     0.09900
S1431       S  0.17568347  0.52174497  0.69676948    -0.33500
S1432       S  0.02657329  0.61050467  0.65926036    -0.33500
H1433       H  0.02702275  0.59751373  0.62908953     0.27900
H1434       H  0.15482222  0.49698859  0.71527777     0.27900
H1435       H  0.15282658  0.55390603  0.64181350     0.18500
H1436       H  0.05424434  0.58943531  0.71661290     0.18500
C1437       C  0.00578166  0.97095251  0.74106188    -0.07300
C1438       C  0.00127843  0.96814110  0.77265460    -0.18500
C1439       C  0.00280278  0.00006367  0.79196317     0.09900
C1440       C  0.00738654  0.03682444  0.77988200    -0.07300
C1441       C  0.01184485  0.03968179  0.74824396    -0.18500
C1442       C  0.01058599  0.00766907  0.72894522     0.09900
S1443       S  0.00005453  0.99176684  0.83212528    -0.33500
S1444       S  0.01323635  0.01584030  0.68877999    -0.33500
H1445       H  0.99033975  0.98470860  0.68067628     0.27900
H1446       H  0.02202114  0.02347837  0.84043658     0.27900
H1447       H  0.99854633  0.94049692  0.78271638     0.18500
H1448       H  0.01399205  0.06737232  0.73811064     0.18500
C1449       C  0.01072166  0.72213703  0.61499373    -0.07300
C1450       C  0.00863041  0.71562818  0.64615821    -0.18500
C1451       C  0.00765445  0.74557834  0.66728397     0.09900
C1452       C  0.01027302  0.78356843  0.65766254    -0.07300
C1453       C  0.00847876  0.79023198  0.62633821    -0.18500
C1454       C  0.00773604  0.75999858  0.60513098     0.09900
S1455       S  0.00808392  0.73325822  0.70661973    -0.33500
S1456       S  0.00654571  0.77133393  0.56551919    -0.33500
H1457       H  0.99097217  0.73649787  0.55615489     0.27900
H1458       H  0.99091297  0.76685431  0.71663482     0.27900
H1459       H  0.01105320  0.68719150  0.65431945     0.18500
H1460       H  0.01079368  0.81892319  0.61822374     0.18500
C1461       C  0.10449463  0.69534155  0.79627556    -0.07300
C1462       C  0.13376304  0.72179393  0.79303346    -0.18500
C1463       C  0.12741611  0.75632063  0.77885375     0.09900
C1464       C  0.09128706  0.76402919  0.76677483    -0.07300
C1465       C  0.06116788  0.73966426  0.77375095    -0.18500
C1466       C  0.06732528  0.70536775  0.78823107     0.09900
S1467       S  0.16618189  0.78947673  0.77786707    -0.33500
S1468       S  0.02742520  0.67484962  0.79646335    -0.33500
H1469       H  0.99995208  0.69573854  0.78108052     0.27900
H1470       H  0.14342575  0.82161573  0.78194440     0.27900
H1471       H  0.16193039  0.71509624  0.80070108     0.18500
H1472       H  0.03284729  0.74685502  0.76696325     0.18500
C1473       C  0.76491263  0.42393414  0.76107306    -0.07300
C1474       C  0.74438610  0.45553152  0.77114059    -0.18500
C1475       C  0.71113005  0.45150391  0.78802908     0.09900
C1476       C  0.69706555  0.41490711  0.79455465    -0.07300
C1477       C  0.71849016  0.38351743  0.78606894    -0.18500
C1478       C  0.75206105  0.38739182  0.76958052     0.09900
S1479       S  0.68844352  0.49427491  0.80081672    -0.33500
S1480       S  0.77684180  0.34478743  0.75933619    -0.33500
H1481       H  0.75559391  0.31935704  0.77689381     0.27900
H1482       H  0.67626724  0.47919607  0.82858112     0.27900
H1483       H  0.75405476  0.48376800  0.76563076     0.18500
H1484       H  0.70783747  0.35554072  0.79109379     0.18500
C1485       C  0.58117582  0.41484228  0.71620986    -0.07300
C1486       C  0.57339456  0.44875483  0.70141137    -0.18500
C1487       C  0.58200031  0.45300057  0.67073549     0.09900
C1488       C  0.59826734  0.42242473  0.65480865    -0.07300
C1489       C  0.60699456  0.38912792  0.66984049    -0.18500
C1490       C  0.59946618  0.38534455  0.70041742     0.09900
S1491       S  0.57286640  0.49822857  0.65378680    -0.33500
S1492       S  0.61679503  0.34346072  0.71827620    -0.33500
H1493       H  0.62823299  0.36233000  0.74492444     0.27900
H1494       H  0.59971122  0.49600437  0.63046957     0.27900
H1495       H  0.56075189  0.47197657  0.71378637     0.18500
H1496       H  0.62074868  0.36618198  0.65776299     0.18500
C1497       C  0.59995932  0.42611390  0.90468848    -0.07300
C1498       C  0.62926619  0.40958318  0.92105237    -0.18500
C1499       C  0.63295772  0.41589247  0.95192922     0.09900
C1500       C  0.60768705  0.44045818  0.96673364    -0.07300
C1501       C  0.57764715  0.45617461  0.95075050    -0.18500
C1502       C  0.57328943  0.44904864  0.91979810     0.09900
S1503       S  0.66918038  0.39013623  0.97136830    -0.33500
S1504       S  0.53259299  0.46868764  0.90143894    -0.33500
H1505       H  0.52652223  0.43802622  0.88157942     0.27900
H1506       H  0.64869149  0.38589617  0.99845113     0.27900
H1507       H  0.64908422  0.39092035  0.90974626     0.18500
H1508       H  0.55754864  0.47396978  0.96240489     0.18500
C1509       C  0.50863627  0.23684385  0.90920491    -0.07300
C1510       C  0.51274330  0.27424762  0.91999482    -0.18500
C1511       C  0.51250663  0.30549355  0.90042986     0.09900
C1512       C  0.50802463  0.30005524  0.86887184    -0.07300
C1513       C  0.50001369  0.26303690  0.85846869    -0.18500
C1514       C  0.50007974  0.23167108  0.87816698     0.09900
S1515       S  0.52338723  0.35127319  0.91654598    -0.33500
S1516       S  0.49367762  0.18533771  0.86171109    -0.33500
H1517       H  0.48214157  0.16768574  0.88857773     0.27900
H1518       H  0.50754835  0.37208435  0.89285990     0.27900
H1519       H  0.51994744  0.27896192  0.94356819     0.18500
H1520       H  0.49750421  0.25791874  0.83433440     0.18500
C1521       C  0.58657056  0.25576372  0.51389161    -0.07300
C1522       C  0.56089219  0.28398974  0.01491587    -0.18500
C1523       C  0.57547794  0.32316989  0.51794982     0.09900
C1524       C  0.60276235  0.32601977  0.54141948    -0.07300
C1525       C  0.62126238  0.29314528  0.55092410    -0.18500
C1526       C  0.61305644  0.25788768  0.53765724     0.09900
S1527       S  0.52552096  0.34808682  0.03340382    -0.33500
S1528       S  0.63565030  0.21688984  0.55317233    -0.33500
H1529       H  0.60838821  0.19030218  0.54366498     0.27900
H1530       H  0.52967461  0.35564036  0.06456983     0.27900
H1531       H  0.53474224  0.27991289  0.00256797     0.18500
H1532       H  0.64179686  0.29481287  0.56902408     0.18500
C1533       C  0.31379517  0.62377280  0.73128840    -0.07300
C1534       C  0.29590410  0.65116523  0.74900914    -0.18500
C1535       C  0.26337353  0.64246308  0.76554634     0.09900
C1536       C  0.24792831  0.60530253  0.76405972    -0.07300
C1537       C  0.26453381  0.57887797  0.74422724    -0.18500
C1538       C  0.29699010  0.58777054  0.72777610     0.09900
S1539       S  0.24490733  0.67962512  0.78926897    -0.33500
S1540       S  0.31596851  0.55186112  0.70287298    -0.33500
H1541       H  0.33226197  0.57723504  0.68217905     0.27900
H1542       H  0.21004786  0.67938295  0.77406898     0.27900
H1543       H  0.30843390  0.67900672  0.75119504     0.18500
H1544       H  0.25259188  0.55073673  0.74178568     0.18500
C1545       C  0.50433683  0.54570588  0.73884965    -0.07300
C1546       C  0.51388190  0.54962052  0.76970376    -0.18500
C1547       C  0.51164488  0.51908877  0.79015453     0.09900
C1548       C  0.50180101  0.48202025  0.77992832    -0.07300
C1549       C  0.49193732  0.47812375  0.74918763    -0.18500
C1550       C  0.49281798  0.50891740  0.72894649     0.09900
S1551       S  0.51996596  0.53006606  0.82948933    -0.33500
S1552       S  0.47962212  0.49837319  0.69043341    -0.33500
H1553       H  0.50274291  0.52616127  0.67730017     0.27900
H1554       H  0.49300056  0.50403227  0.84029719     0.27900
H1555       H  0.52100397  0.57739381  0.77856908     0.18500
H1556       H  0.48493192  0.45031765  0.74031935     0.18500
C1557       C  0.44548273  0.61779977  0.80927406    -0.07300
C1558       C  0.43186162  0.58348042  0.82094392    -0.18500
C1559       C  0.42321497  0.57998989  0.85167504     0.09900
C1560       C  0.42678655  0.61184977  0.87076471    -0.07300
C1561       C  0.44188849  0.64535779  0.85982953    -0.18500
C1562       C  0.45179016  0.64888670  0.82951499     0.09900
S1563       S  0.40759019  0.53449412  0.86500571    -0.33500
S1564       S  0.47181349  0.69388724  0.81831972    -0.33500
H1565       H  0.45704396  0.71567419  0.84232759     0.27900
H1566       H  0.41708801  0.53998921  0.89558205     0.27900
H1567       H  0.42785765  0.55923349  0.80610522     0.18500
H1568       H  0.44533033  0.66917431  0.87521492     0.18500
C1569       C  0.40441669  0.61392434  0.61997660    -0.07300
C1570       C  0.39270648  0.64357214  0.60113282    -0.18500
C1571       C  0.39189457  0.63967364  0.56982827     0.09900
C1572       C  0.40317145  0.60534047  0.55656209    -0.07300
C1573       C  0.41372562  0.57520167  0.57511477    -0.18500
C1574       C  0.41451017  0.57896420  0.60666426     0.09900
S1575       S  0.37490085  0.67914751  0.54842342    -0.33500
S1576       S  0.42970022  0.53934164  0.62891306    -0.33500
H1577       H  0.43403813  0.51328165  0.60493726     0.27900
H1578       H  0.35415059  0.65724874  0.52747748     0.27900
H1579       H  0.38407389  0.67042430  0.61079664     0.18500
H1580       H  0.42193006  0.54870866  0.56469104     0.18500
C1581       C  0.50046141  0.98647162  0.53254949    -0.07300
C1582       C  0.51472742  0.98217868  0.00207763    -0.18500
C1583       C  0.51122735  0.01191172  0.98119496     0.09900
C1584       C  0.49348051  0.04897014  0.49132862    -0.07300
C1585       C  0.48677806  0.05336115  0.52259900    -0.18500
C1586       C  0.49086739  0.02328044  0.54307405     0.09900
S1587       S  0.52006282  0.00047889  0.94194601    -0.33500
S1588       S  0.48489589  0.03434054  0.58270624    -0.33500
H1589       H  0.51183531  0.00821314  0.59264255     0.27900
H1590       H  0.49358071  0.02613705  0.93057573     0.27900
H1591       H  0.52153238  0.95426320  0.99349632     0.18500
H1592       H  0.48059867  0.08117510  0.53158479     0.18500
C1593       C  0.49740322  0.79650535  0.61286759    -0.07300
C1594       C  0.49402735  0.75891280  0.60228870    -0.18500
C1595       C  0.49645858  0.72771240  0.62186133     0.09900
C1596       C  0.50197209  0.73340974  0.65326358    -0.07300
C1597       C  0.50899237  0.77075852  0.66337670    -0.18500
C1598       C  0.50713408  0.80203077  0.64367166     0.09900
S1599       S  0.48697515  0.68146000  0.60610018    -0.33500
S1600       S  0.51313314  0.84847312  0.66004934    -0.33500
H1601       H  0.52177091  0.86692581  0.63287769     0.27900
H1602       H  0.50427599  0.66118398  0.62943432     0.27900
H1603       H  0.48599543  0.75386482  0.57893011     0.18500
H1604       H  0.51231027  0.77605546  0.68743169     0.18500
C1605       C  0.38794205  0.72386207  0.97033600    -0.07300
C1606       C  0.42332930  0.74145577  0.96662279    -0.18500
C1607       C  0.43429514  0.77241200  0.98434804     0.09900
C1608       C  0.40668978  0.78528855  0.50539417    -0.07300
C1609       C  0.36958985  0.77060810  0.50576455    -0.18500
C1610       C  0.35912154  0.73964972  0.48754103     0.09900
S1611       S  0.47970434  0.79302475  0.97594807    -0.33500
S1612       S  0.31077616  0.72370402  0.48965700    -0.33500
H1613       H  0.30754046  0.71802634  0.45819508     0.27900
H1614       H  0.46448189  0.82924928  0.97249604     0.27900
H1615       H  0.44342376  0.73008428  0.95043206     0.18500
H1616       H  0.34874236  0.78247102  0.52103354     0.18500
C1617       C  0.41518789  0.82109691  0.80096831    -0.07300
C1618       C  0.38739833  0.79283955  0.79916153    -0.18500
C1619       C  0.39474487  0.75869815  0.78429048     0.09900
C1620       C  0.42946600  0.75395071  0.76876516    -0.07300
C1621       C  0.45859720  0.78014163  0.77376998    -0.18500
C1622       C  0.45231226  0.81279701  0.79082099     0.09900
S1623       S  0.35922907  0.72218815  0.78681277    -0.33500
S1624       S  0.49292836  0.84241079  0.79852889    -0.33500
H1625       H  0.47919748  0.85601647  0.82633297     0.27900
H1626       H  0.38506020  0.69210935  0.78687639     0.27900
H1627       H  0.35950826  0.79770098  0.80852634     0.18500
H1628       H  0.48624774  0.77565256  0.76383738     0.18500
C1629       C  0.40970985  0.92839158  0.65554931    -0.07300
C1630       C  0.42702973  0.90423880  0.67615046    -0.18500
C1631       C  0.42861802  0.91308310  0.70673632     0.09900
C1632       C  0.41178166  0.94663793  0.71731312    -0.07300
C1633       C  0.39567253  0.97164442  0.69663220    -0.18500
C1634       C  0.39395679  0.96270164  0.66591260     0.09900
S1635       S  0.44903369  0.87842286  0.73106716    -0.33500
S1636       S  0.36805708  0.99432610  0.64201827    -0.33500
H1637       H  0.34860903  0.96529328  0.62644996     0.27900
H1638       H  0.47563739  0.90397202  0.74330749     0.27900
H1639       H  0.43891476  0.87775455  0.66844703     0.18500
H1640       H  0.38234274  0.99732626  0.70473379     0.18500
C1641       C  0.41779968  0.92325023  0.90565372    -0.07300
C1642       C  0.39389065  0.94064814  0.92676308    -0.18500
C1643       C  0.40367512  0.94336884  0.95706413     0.09900
C1644       C  0.43749886  0.92663436  0.96683482    -0.07300
C1645       C  0.46231188  0.91073044  0.94556363    -0.18500
C1646       C  0.45276945  0.90865076  0.91510514     0.09900
S1647       S  0.37042062  0.96611697  0.98201688    -0.33500
S1648       S  0.48457007  0.88369897  0.89029141    -0.33500
H1649       H  0.45546314  0.86226018  0.87672259     0.27900
H1650       H  0.39717851  0.99255083  0.99279883     0.27900
H1651       H  0.36715126  0.95206911  0.91961176     0.18500
H1652       H  0.48842085  0.89797727  0.95297655     0.18500
C1653       C  0.26787764  0.91351719  0.76207470    -0.07300
C1654       C  0.25091158  0.94167045  0.74450546    -0.18500
C1655       C  0.21885002  0.93407177  0.72711761     0.09900
C1656       C  0.20267682  0.89754323  0.72726167    -0.07300
C1657       C  0.22152177  0.86851260  0.74215497    -0.18500
C1658       C  0.25333478  0.87605843  0.76001491     0.09900
S1659       S  0.19978321  0.97220805  0.70523688    -0.33500
S1660       S  0.27181723  0.83695490  0.78100091    -0.33500
H1661       H  0.26593567  0.85489409  0.80918098     0.27900
H1662       H  0.18475249  0.94870819  0.68233663     0.27900
H1663       H  0.26225257  0.97018514  0.74458403     0.18500
H1664       H  0.20967016  0.84027026  0.74182290     0.18500
C1665       C  0.12945694  0.79829522  0.97571899    -0.07300
C1666       C  0.14563640  0.79636252  0.50460833    -0.18500
C1667       C  0.13436865  0.76696070  0.52359492     0.09900
C1668       C  0.10405406  0.74290018  0.51491827    -0.07300
C1669       C  0.08657629  0.74805338  0.99059047    -0.18500
C1670       C  0.09776272  0.77498940  0.96953928     0.09900
S1671       S  0.15722439  0.76442216  0.55992363    -0.33500
S1672       S  0.07000679  0.77860252  0.93549564    -0.33500
H1673       H  0.09968350  0.79281101  0.91754645     0.27900
H1674       H  0.12362056  0.75746187  0.57610614     0.27900
H1675       H  0.16727422  0.81595762  0.51240401     0.18500
H1676       H  0.06168678  0.73105787  0.98596223     0.18500
C1677       C  0.27921010  0.00259773  0.86415430    -0.07300
C1678       C  0.24244898  0.99793134  0.85256782    -0.18500
C1679       C  0.21051328  0.99741877  0.87167693     0.09900
C1680       C  0.21489165  0.99998212  0.90339894    -0.07300
C1681       C  0.25103449  0.00965627  0.91448588    -0.18500
C1682       C  0.28302662  0.01125837  0.89519539     0.09900
S1683       S  0.16488918  0.99068168  0.85454209    -0.33500
S1684       S  0.32920006  0.02078656  0.91066019    -0.33500
H1685       H  0.31737983  0.02680622  0.94073633     0.27900
H1686       H  0.14359991  0.00090314  0.88023124     0.27900
H1687       H  0.23880590  0.99155781  0.82870541     0.18500
H1688       H  0.25502043  0.01211826  0.93855634     0.18500
C1689       C  0.24065732  0.93209974  0.51784609    -0.07300
C1690       C  0.24901710  0.89493406  0.52635944    -0.18500
C1691       C  0.28147394  0.88667196  0.54292217     0.09900
C1692       C  0.30655249  0.91636942  0.55064585    -0.07300
C1693       C  0.29581738  0.95391101  0.54524765    -0.18500
C1694       C  0.26320091  0.96213633  0.52895798     0.09900
S1695       S  0.29159708  0.83794229  0.55149262    -0.33500
S1696       S  0.25391407  0.01110056  0.52128347    -0.33500
H1697       H  0.24467131  0.00505731  0.49077440     0.27900
H1698       H  0.25623130  0.82285476  0.54308965     0.27900
H1699       H  0.23074399  0.87204426  0.51884127     0.18500
H1700       H  0.31433150  0.97699438  0.55202455     0.18500
C1701       C  0.10091991  0.91876111  0.55662603    -0.07300
C1702       C  0.11280596  0.94746247  0.57688957    -0.18500
C1703       C  0.11376351  0.94162787  0.60806048     0.09900
C1704       C  0.10159681  0.90651011  0.61936901    -0.07300
C1705       C  0.08847631  0.87840557  0.59936026    -0.18500
C1706       C  0.08839526  0.88373523  0.56824001     0.09900
S1707       S  0.13219322  0.97864077  0.63251127    -0.33500
S1708       S  0.07194624  0.84501357  0.54465350    -0.33500
H1709       H  0.07866208  0.81624693  0.56568426     0.27900
H1710       H  0.14717309  0.00173776  0.60961752     0.27900
H1711       H  0.12222325  0.97446938  0.56833751     0.18500
H1712       H  0.07804755  0.85184189  0.60818901     0.18500
C1713       C  0.09549825  0.90152476  0.86984355    -0.07300
C1714       C  0.12444879  0.90601484  0.84850923    -0.18500
C1715       C  0.11654001  0.90956594  0.81801552     0.09900
C1716       C  0.07899391  0.90618637  0.80807924    -0.07300
C1717       C  0.04985728  0.90083293  0.82917457    -0.18500
C1718       C  0.05753015  0.89921846  0.86014025     0.09900
S1719       S  0.15597067  0.91583798  0.79294008    -0.33500
S1720       S  0.01890513  0.89122321  0.88621575    -0.33500
H1721       H  0.98961744  0.89922789  0.86584805     0.27900
H1722       H  0.14143300  0.94912463  0.78048714     0.27900
H1723       H  0.15368745  0.90766398  0.85565652     0.18500
H1724       H  0.02119368  0.89677780  0.82122951     0.18500
C1725       C  0.60571881  0.20393081  0.72914486    -0.07300
C1726       C  0.63614087  0.22315165  0.74258186    -0.18500
C1727       C  0.63065825  0.25612081  0.76001095     0.09900
C1728       C  0.59347744  0.27050458  0.76402009    -0.07300
C1729       C  0.56345630  0.25198695  0.74914373    -0.18500
C1730       C  0.56915710  0.21942900  0.73165718     0.09900
S1731       S  0.67163484  0.27817236  0.77731436    -0.33500
S1732       S  0.52833373  0.19881602  0.71332368    -0.33500
H1733       H  0.54831710  0.18418897  0.68830241     0.27900
H1734       H  0.69874342  0.25191732  0.76742742     0.27900
H1735       H  0.66405816  0.21106474  0.74072965     0.18500
H1736       H  0.53501164  0.26281032  0.75114255     0.18500
C1737       C  0.46935535  0.01765612  0.78502787    -0.07300
C1738       C  0.46536428  0.02472911  0.75386999    -0.18500
C1739       C  0.49567283  0.02071945  0.73329294     0.09900
C1740       C  0.53232036  0.01102944  0.74361370    -0.07300
C1741       C  0.53645347  0.00435015  0.77481401    -0.18500
C1742       C  0.50609149  0.00802610  0.79538062     0.09900
S1743       S  0.48500539  0.02672693  0.69377035    -0.33500
S1744       S  0.51670529  0.00069423  0.83480119    -0.33500
H1745       H  0.49008195  0.02686653  0.84569131     0.27900
H1746       H  0.51095753  0.99948672  0.68352834     0.27900
H1747       H  0.43765148  0.03091333  0.74494727     0.18500
H1748       H  0.56417737  0.99808483  0.78369192     0.18500
C1749       C  0.59620015  0.08339571  0.80899550    -0.07300
C1750       C  0.60919278  0.05777100  0.83058120    -0.18500
C1751       C  0.60957331  0.06707261  0.86139961     0.09900
C1752       C  0.59674297  0.10307480  0.87073527    -0.07300
C1753       C  0.58268839  0.12811483  0.84914445    -0.18500
C1754       C  0.58210673  0.11873803  0.81846146     0.09900
S1755       S  0.62904156  0.03370356  0.88778540    -0.33500
S1756       S  0.56530887  0.15322829  0.79192364    -0.33500
H1757       H  0.56153622  0.18368074  0.81237134     0.27900
H1758       H  0.63128920  0.00283651  0.86758037     0.27900
H1759       H  0.62021622  0.03079220  0.82306155     0.18500
H1760       H  0.57228830  0.15542466  0.85637562     0.18500
C1761       C  0.58969782  0.10333646  0.61944031    -0.07300
C1762       C  0.55382851  0.11815283  0.61333618    -0.18500
C1763       C  0.54117378  0.12223708  0.58356823     0.09900
C1764       C  0.56477787  0.11079115  0.55948009    -0.07300
C1765       C  0.59996643  0.09489340  0.56554586    -0.18500
C1766       C  0.61260279  0.09088337  0.59507458     0.09900
S1767       S  0.49485516  0.14147264  0.57672191    -0.33500
S1768       S  0.65770245  0.06867972  0.59979135    -0.33500
H1769       H  0.64472979  0.04631232  0.62385873     0.27900
H1770       H  0.48402676  0.14567563  0.60721012     0.27900
H1771       H  0.53608504  0.12744549  0.63192085     0.18500
H1772       H  0.61820967  0.08615722  0.54703313     0.18500
C1773       C  0.74341819  0.09896797  0.75965427    -0.07300
C1774       C  0.77308601  0.11536473  0.74341898    -0.18500
C1775       C  0.80773726  0.12265233  0.75702932     0.09900
C1776       C  0.81263743  0.11424410  0.78797890    -0.07300
C1777       C  0.78249110  0.09910485  0.80468104    -0.18500
C1778       C  0.74779057  0.09100507  0.79063849     0.09900
S1779       S  0.84470643  0.14111516  0.73295150    -0.33500
S1780       S  0.70939518  0.07079331  0.81219728    -0.33500
H1781       H  0.72731265  0.07254126  0.84055422     0.27900
H1782       H  0.86735103  0.15674180  0.75576959     0.27900
H1783       H  0.76961423  0.12130127  0.71955243     0.18500
H1784       H  0.78674975  0.09212010  0.82822827     0.18500
C1785       C  0.91046354  0.25827267  0.50260843    -0.07300
C1786       C  0.94023395  0.23937556  0.51674927    -0.18500
C1787       C  0.93382865  0.20780129  0.53463241     0.09900
C1788       C  0.89654920  0.19425331  0.53886062    -0.07300
C1789       C  0.86643650  0.21399572  0.52626859    -0.18500
C1790       C  0.87162467  0.24735023  0.00983454     0.09900
S1791       S  0.97492493  0.18571607  0.55066278    -0.33500
S1792       S  0.83046789  0.27127764  0.99565859    -0.33500
H1793       H  0.80291515  0.24651290  0.00732143     0.27900
H1794       H  0.95609158  0.16930956  0.57524289     0.27900
H1795       H  0.96912118  0.24890005  0.51362756     0.18500
H1796       H  0.83794903  0.20217968  0.02880111     0.18500
C1797       C  0.02797167  0.00177830  0.48746121    -0.07300
C1798       C  0.03182350  0.01115625  0.51829267    -0.18500
C1799       C  0.00072748  0.01074837  0.53850158     0.09900
C1800       C  0.96384258  0.00158077  0.52786707    -0.07300
C1801       C  0.95993329  0.99320034  0.49675376    -0.18500
C1802       C  0.99110256  0.99336124  0.47676920     0.09900
S1803       S  0.00934029  0.01938301  0.57831436    -0.33500
S1804       S  0.98465856  0.97527173  0.94050844    -0.33500
H1805       H  0.01818640  0.99068650  0.92851020     0.27900
H1806       H  0.04863020  0.02505425  0.57630917     0.27900
H1807       H  0.06003451  0.01537968  0.52716308     0.18500
H1808       H  0.93213740  0.98722590  0.48762085     0.18500
C1809       C  0.72168525  0.01059282  0.66098947    -0.07300
C1810       C  0.71473920  0.99994419  0.63077834    -0.18500
C1811       C  0.74422818  0.99843968  0.60908659     0.09900
C1812       C  0.78186606  0.00786292  0.61733924    -0.07300
C1813       C  0.78932913  0.01336077  0.64828292    -0.18500
C1814       C  0.75993852  0.01414528  0.67003382     0.09900
S1815       S  0.73142980  0.98838339  0.57047893    -0.33500
S1816       S  0.77126366  0.02261902  0.70929204    -0.33500
H1817       H  0.81078710  0.02293809  0.70590326     0.27900
H1818       H  0.76752494  0.97647000  0.56130957     0.27900
H1819       H  0.68592080  0.99561055  0.62341337     0.18500
H1820       H  0.81786743  0.02059778  0.65506828     0.18500
C1821       C  0.75708547  0.09220531  0.50948351    -0.07300
C1822       C  0.74854148  0.13059371  0.50534399    -0.18500
C1823       C  0.71526244  0.14164904  0.49118105     0.09900
C1824       C  0.69460829  0.11317724  0.97922209    -0.07300
C1825       C  0.70168468  0.07454323  0.98371704    -0.18500
C1826       C  0.73494526  0.06210860  0.99703703     0.09900
S1827       S  0.70667954  0.19153221  0.48865377    -0.33500
S1828       S  0.74120826  0.01176111  0.99904973    -0.33500
H1829       H  0.77808676  0.01305571  0.98722753     0.27900
H1830       H  0.67037621  0.18822234  0.50090289     0.27900
H1831       H  0.76717430  0.15241622  0.51424187     0.18500
H1832       H  0.68080631  0.05357262  0.97693263     0.18500
C1833       C  0.90268705  0.05887494  0.95935491    -0.07300
C1834       C  0.93315479  0.08185526  0.95038870    -0.18500
C1835       C  0.93783642  0.09240256  0.92032379     0.09900
C1836       C  0.91045511  0.08180828  0.89876424    -0.07300
C1837       C  0.88198995  0.05612849  0.90682908    -0.18500
C1838       C  0.87851459  0.04360864  0.93668888     0.09900
S1839       S  0.98005112  0.11825702  0.91069622    -0.33500
S1840       S  0.84349011  0.00763075  0.94389177    -0.33500
H1841       H  0.86653427  0.98747846  0.96392876     0.27900
H1842       H  0.98262606  0.10484645  0.88068723     0.27900
H1843       H  0.95331468  0.09232644  0.96691558     0.18500
H1844       H  0.86203859  0.04623547  0.88991098     0.18500
C1845       C  0.91314306  0.09957587  0.64901795    -0.07300
C1846       C  0.90709315  0.06840195  0.66766684    -0.18500
C1847       C  0.91757865  0.06936225  0.69822642     0.09900
C1848       C  0.93452895  0.10275066  0.71034050    -0.07300
C1849       C  0.94122240  0.13353444  0.69098368    -0.18500
C1850       C  0.93036391  0.13237338  0.66063071     0.09900
S1851       S  0.90805124  0.02795264  0.72085835    -0.33500
S1852       S  0.93580171  0.17383034  0.63748325    -0.33500
H1853       H  0.95464697  0.19647402  0.65906787     0.27900
H1854       H  0.89170944  0.00535616  0.69797622     0.27900
H1855       H  0.89357307  0.04344736  0.65817432     0.18500
H1856       H  0.95371898  0.15930784  0.69986412     0.18500
loop_ 
_geom_bond_atom_site_label_1 
_geom_bond_atom_site_label_2 
_geom_bond_distance 
_geom_bond_site_symmetry_2 
_ccdc_geom_bond_type 
O1           C16   1.264       .  A
O1         Al937   1.890       .  S
C2           O12   1.259       .  A
C2            O3   1.266       .  A
C2          C917   1.461       .  S
O3           Al5   1.923       .  S
O4            C6   1.246       .  A
O4           Al5   1.865       .  S
Al5          O13   1.855       .  S
Al5         O943   1.931       .  S
Al5          O14   1.773       .  S
C6           O19   1.271   1_545  A
C6          C872   1.519   1_545  S
O7           C17   1.284       .  A
O7           Al9   1.976       .  S
O8           C21   1.261       .  A
O8          Al18   1.880       .  S
Al9          O22   1.938       .  S
Al9          O19   1.994   1_545  S
Al9         O929   1.888       .  S
Al9          O14   1.793       .  S
O10          C17   1.266       .  A
O10         Al18   1.920       .  S
O11          C20   1.259       .  A
O11         Al18   1.924       .  S
O12         Al18   1.873       .  S
O13          C20   1.247       .  A
O14         Al18   1.770       .  S
O15          C16   1.273       .  A
O15        Al933   1.935       .  S
C16         C905   1.482       .  S
C17         C884   1.506       .  S
C20         C860   1.469       .  S
C21          O22   1.268       .  A
C21         C893   1.486       .  S
O23          C38   1.260       .  A
O23         Al31   1.864       .  S
C24          O34   1.261       .  A
C24          O25   1.263       .  A
C24         C833   1.469       .  S
O25         Al27   1.896       .  S
O26          C28   1.245       .  A
O26         Al27   1.863       .  S
Al27         O35   1.847       .  S
Al27         O37   1.922       .  S
Al27         O36   1.785       .  S
C28          O41   1.269       .  A
C28         C812   1.526       .  S
O29          C39   1.284       .  A
O29         Al31   1.978       .  S
O30          C43   1.256       .  A
O30         Al40   1.880       .  S
Al31         O44   1.926       .  S
Al31         O41   1.993       .  S
Al31         O36   1.804       .  S
O32          C39   1.268       .  A
O32         Al40   1.928       .  S
O33          C42   1.258       .  A
O33         Al40   1.921       .  S
O34         Al40   1.879       .  S
O35          C42   1.246       .  A
O36         Al40   1.781       .  S
O37          C38   1.268       .  A
C38         C821   1.456       .  S
C39         C881   1.513       .  S
C42         C797   1.472       .  S
C43          O44   1.265       .  A
C43         C845   1.464       .  S
O45          C60   1.254       .  A
O45         Al53   1.891       .  S
C46          O56   1.269       .  A
C46          O47   1.277       .  A
C46         C785   1.458       .  S
O47         Al49   1.927       .  S
O48          C50   1.260       .  A
O48         Al49   1.885       .  S
Al49         O57   1.918       .  S
Al49         O59   1.862       .  S
Al49         O58   1.774       .  S
C50          O63   1.279       .  A
C50         C752   1.500   1_565  S
O51          C61   1.270       .  A
O51        Al981   1.964       .  S
O52          C65   1.273       .  A
O52        Al990   1.886   1_554  S
Al53         O66   1.914   1_556  S
Al53        O979   1.961       .  S
Al53        O991   1.974       .  S
Al53        O986   1.785       .  S
O54          C61   1.237       .  A
O54         Al62   1.832       .  S
O55          C64   1.243       .  A
O55         Al62   1.889       .  S
O56         Al62   1.864       .  S
O57          C64   1.250       .  A
O58         Al62   1.779       .  S
O58        Al981   1.790       .  S
O59         C988   1.252       .  A
C60         O987   1.254       .  A
C60         C761   1.474   1_556  S
C61        C1797   1.492   1_565  S
Al62        O980   1.881       .  S
O63        Al981   1.975       .  S
C64         C737   1.475       .  S
C65          O66   1.277       .  A
C65         C773   1.478       .  S
O67          C82   1.271       .  A
O67         Al75   1.944       .  S
C68          O78   1.264       .  A
C68          O69   1.259       .  A
C68         C713   1.463       .  S
O69         Al71   1.853       .  S
O70          C72   1.269       .  A
O70         Al71   1.931       .  S
Al71         O79   1.924       .  S
Al71         O81   1.880       .  S
Al71         O80   1.771       .  S
C72          O85   1.281   1_565  A
C72         C749   1.500   1_565  S
O73          C83   1.271       .  A
O73         Al75   2.001   1_545  S
O74          C87   1.266       .  A
O74         Al84   1.924       .  S
Al75         O88   1.863       .  S
Al75         O85   1.960   1_565  S
Al75         O80   1.795       .  S
O76          C83   1.247   1_565  A
O76         Al84   1.866       .  S
O77          C86   1.246       .  A
O77         Al84   1.851       .  S
O78         Al84   1.909       .  S
O79          C86   1.260       .  A
O80         Al84   1.773       .  S
O81          C82   1.256       .  A
C82         C725   1.486       .  S
C83         C809   1.526       .  S
C86         C689   1.476       .  S
C87          O88   1.263       .  A
C87         C704   1.470       .  S
O89         C104   1.261       .  A
O89       Al1025   1.862       .  S
C90         O100   1.262       .  A
C90          O91   1.261       .  A
C90         C701   1.452       .  S
O91         Al93   1.888       .  S
O92          C94   1.249       .  A
O92         Al93   1.869       .  S
Al93        O101   1.861       .  S
Al93       O1031   1.905       .  S
Al93        O102   1.781       .  S
C94         O107   1.269       .  A
C94         C653   1.518       .  S
O95         C105   1.281       .  A
O95         Al97   1.965       .  S
O96         C109   1.262       .  A
O96        Al106   1.895       .  S
Al97        O110   1.935       .  S
Al97        O107   1.981       .  S
Al97       O1017   1.866       .  S
Al97        O102   1.796       .  S
O98         C105   1.265       .  A
O98        Al106   1.916       .  S
O99         C108   1.257       .  A
O99        Al106   1.918       .  S
O100       Al106   1.877       .  S
O101        C108   1.249       .  A
O102       Al106   1.775       .  S
O103        C104   1.267       .  A
O103      Al1021   1.920       .  S
C104        C716   1.461       .  S
C105        C665   1.502       .  S
C108        C764   1.477       .  S
C109        O110   1.267       .  A
C109        C680   1.489       .  S
O111        C126   1.257       .  A
O111       Al119   1.843       .  S
C112        O122   1.257       .  A
C112        O113   1.271       .  A
C112        C641   1.471       .  S
O113       Al115   1.932       .  S
O114        C116   1.243       .  A
O114       Al115   1.857       .  S
Al115       O123   1.845       .  S
Al115       O125   1.957       .  S
Al115       O124   1.775       .  S
C116        O129   1.267       .  A
C116        C617   1.530       .  S
O117        C127   1.284       .  A
O117       Al119   1.963       .  S
O118        C131   1.255       .  A
O118       Al128   1.867       .  S
Al119       O132   1.938       .  S
Al119       O129   1.992       .  S
Al119       O124   1.799       .  S
O120        C127   1.268       .  A
O120       Al128   1.921       .  S
O121        C130   1.254       .  A
O121       Al128   1.913       .  S
O122       Al128   1.844       .  S
O123        C130   1.244       .  A
O124       Al128   1.778       .  S
O125        C126   1.278       .  A
C126        C629   1.479       .  S
C127        C668   1.498       .  S
C130        C605   1.468       .  S
C131        O132   1.268       .  A
C131        C692   1.475       .  S
O133        C148   1.264       .  A
O133       Al141   1.910       .  S
C134        O144   1.262       .  A
C134        O135   1.261       .  A
C134        C824   1.473       .  S
O135       Al137   1.863       .  S
O136        C138   1.268       .  A
O136       Al137   1.924       .  S
Al137       O145   1.910       .  S
Al137       O147   1.895       .  S
Al137       O146   1.774       .  S
C138        O151   1.287       .  A
C138        C581   1.510       .  S
O139        C149   1.266       .  A
O139      Al1069   1.983       .  S
O140        C153   1.270       .  A
O140      Al1078   1.924   1_554  S
Al141       O154   1.873   1_556  S
Al141      O1067   1.984       .  S
Al141      O1079   1.963       .  S
Al141      O1074   1.799       .  S
O142        C149   1.245       .  A
O142       Al150   1.866       .  S
O143        C152   1.247       .  A
O143       Al150   1.854       .  S
O144       Al150   1.898       .  S
O145        C152   1.255       .  A
O146       Al150   1.778       .  S
O146      Al1069   1.799       .  S
O147       C1076   1.258       .  A
C148       O1075   1.262       .  A
C148        C593   1.475   1_556  S
C149       C1584   1.519       .  S
Al150      O1068   1.919       .  S
O151      Al1069   1.978       .  S
C152        C896   1.473       .  S
C153        O154   1.262       .  A
C153        C836   1.467       .  S
O155        C170   1.265       .  A
O155       Al163   1.935       .  S
C156        O166   1.264       .  A
C156        O157   1.256       .  A
C156        C569   1.456       .  S
O157       Al159   1.848       .  S
O158        C160   1.270       .  A
O158       Al159   1.927       .  S
Al159       O167   1.919       .  S
Al159       O169   1.881       .  S
Al159       O168   1.777       .  S
C160        O173   1.288       .  A
C160        C584   1.504       .  S
O161        C171   1.267       .  A
O161       Al163   1.992       .  S
O162        C175   1.271       .  A
O162       Al172   1.931       .  S
Al163       O176   1.872       .  S
Al163       O173   1.970       .  S
Al163       O168   1.795       .  S
O164        C171   1.246       .  A
O164       Al172   1.868       .  S
O165        C174   1.246       .  A
O165       Al172   1.855       .  S
O166       Al172   1.909       .  S
O167        C174   1.258       .  A
O168       Al172   1.784       .  S
O169        C170   1.253       .  A
C170        C800   1.490       .  S
C171        C620   1.529       .  S
C174        C548   1.487       .  S
C175        O176   1.266       .  A
C175        C557   1.453       .  S
O177        C192   1.265       .  A
O177       Al185   1.858       .  S
C178        O188   1.260       .  A
C178        O179   1.264       .  A
C178        C776   1.469       .  S
O179       Al181   1.897       .  S
O180        C182   1.245       .  A
O180       Al181   1.871       .  S
Al181       O189   1.851       .  S
Al181       O191   1.931       .  S
Al181       O190   1.781       .  S
C182        O195   1.261       .  A
C182        C509   1.515       .  S
O183        C193   1.283       .  A
O183       Al185   1.957       .  S
O184        C197   1.254       .  A
O184       Al194   1.881       .  S
Al185       O198   1.920       .  S
Al185       O195   1.962       .  S
Al185       O190   1.799       .  S
O186        C193   1.270       .  A
O186       Al194   1.925       .  S
O187        C196   1.254       .  A
O187       Al194   1.907       .  S
O188       Al194   1.862       .  S
O189        C196   1.246       .  A
O190       Al194   1.780       .  S
O191        C192   1.273       .  A
C192        C788   1.456       .  S
C193        C524   1.494       .  S
C196        C728   1.474       .  S
C197        O198   1.262       .  A
C197        C536   1.478       .  S
O199        C214   1.256       .  A
O199      Al1135   1.864       .  S
C200        O210   1.259       .  A
C200        O201   1.267       .  A
C200        C497   1.458       .  S
O201       Al203   1.926       .  S
O202        C204   1.247       .  A
O202       Al203   1.858       .  S
Al203       O211   1.853       .  S
Al203      O1141   1.937       .  S
Al203       O212   1.768       .  S
C204        O217   1.276       .  A
C204        C473   1.516       .  S
O205        C215   1.278       .  A
O205       Al207   1.960       .  S
O206        C219   1.258       .  A
O206       Al216   1.865       .  S
Al207       O220   1.940       .  S
Al207       O217   2.002       .  S
Al207      O1127   1.876       .  S
Al207       O212   1.784       .  S
O208        C215   1.264       .  A
O208       Al216   1.917       .  S
O209        C218   1.262       .  A
O209       Al216   1.938       .  S
O210       Al216   1.867       .  S
O211        C218   1.249       .  A
O212       Al216   1.771       .  S
O213        C214   1.268       .  A
O213      Al1131   1.929       .  S
C214        C488   1.472       .  S
C215        C521   1.498       .  S
C218        C461   1.458       .  S
C219        O220   1.273       .  A
C219        C740   1.474       .  S
O221        C236   1.268       .  A
O221       Al229   1.925       .  S
C222        O232   1.267       .  A
C222        O223   1.261       .  A
C222        C908   1.478       .  S
O223       Al225   1.879       .  S
O224        C226   1.265       .  A
O224       Al225   1.915       .  S
Al225       O233   1.931       .  S
Al225       O235   1.884       .  S
Al225       O234   1.780       .  S
C226        O239   1.279   1_655  A
C226        C437   1.500   1_655  S
O227        C237   1.272   1_455  A
O227       Al229   1.983   1_455  S
O228        C241   1.266       .  A
O228       Al238   1.931       .  S
Al229       O242   1.875       .  S
Al229       O239   1.962   1_655  S
Al229       O234   1.790       .  S
O230        C237   1.253       .  A
O230       Al238   1.874       .  S
O231        C240   1.249       .  A
O231       Al238   1.856       .  S
O232       Al238   1.931       .  S
O233        C240   1.260       .  A
O234       Al238   1.779       .  S
O235        C236   1.258       .  A
C236        C449   1.489       .  S
C237        C512   1.513   1_655  S
C240        C848   1.464       .  S
C241        O242   1.261       .  A
C241        C920   1.487       .  S
O243        C258   1.265       .  A
O243      Al1179   1.924       .  S
C244        O254   1.261       .  A
C244        O245   1.258       .  A
C244        C425   1.464       .  S
O245       Al247   1.858       .  S
O246        C248   1.269       .  A
O246       Al247   1.923       .  S
Al247       O255   1.915       .  S
Al247       O257   1.879       .  S
Al247       O256   1.779       .  S
C248        O261   1.282       .  A
C248        C440   1.496   1_655  S
O249        C259   1.268   1_455  A
O249       Al251   1.985   1_455  S
O250        C263   1.269       .  A
O250      Al1188   1.926   1_554  S
Al251       O261   1.956       .  S
Al251      O1171   1.932       .  S
Al251      O1192   1.867       .  S
Al251       O256   1.792       .  S
O252        C259   1.245       .  A
O252       Al260   1.868       .  S
O253        C262   1.246       .  A
O253       Al260   1.847       .  S
O254       Al260   1.893       .  S
O255        C262   1.257       .  A
O256       Al260   1.781       .  S
O257       C1186   1.254       .  A
C258       O1185   1.255       .  A
C258        C857   1.490   1_556  S
C259        C476   1.516   1_655  S
Al260      O1178   1.933       .  S
C262        C401   1.458       .  S
C263        O264   1.264       .  A
C263        C413   1.454       .  S
O264      Al1179   1.870   1_554  S
O265        C280   1.266       .  A
O265       Al273   1.864       .  S
C266        O276   1.258       .  A
C266        O267   1.261       .  A
C266        C416   1.452       .  S
O267       Al269   1.890       .  S
O268        C270   1.244       .  A
O268       Al269   1.869       .  S
Al269       O277   1.853       .  S
Al269       O279   1.923       .  S
Al269       O278   1.784       .  S
C270        O283   1.264       .  A
C270        C377   1.524       .  S
O271        C281   1.285       .  A
O271       Al273   1.960       .  S
O272        C285   1.256       .  A
O272       Al282   1.892       .  S
Al273       O286   1.927       .  S
Al273       O283   1.981       .  S
Al273       O278   1.797       .  S
O274        C281   1.269       .  A
O274       Al282   1.918       .  S
O275        C284   1.255       .  A
O275       Al282   1.905       .  S
O276       Al282   1.867       .  S
O277        C284   1.246       .  A
O278       Al282   1.781       .  S
O279        C280   1.271       .  A
C280        C428   1.462       .  S
C281        C389   1.496       .  S
C284        C452   1.474       .  S
C285        O286   1.264       .  A
C285        C545   1.483       .  S
O287        C302   1.266       .  A
O287      Al1223   1.867       .  S
C288        O298   1.255       .  A
C288        O289   1.264       .  A
C288        C560   1.455       .  S
O289       Al291   1.906       .  S
O290        C292   1.246       .  A
O290       Al291   1.868       .  S
Al291       O299   1.839       .  S
Al291      O1229   1.937       .  S
Al291       O300   1.777       .  S
C292        O305   1.262       .  A
C292        C365   1.524       .  S
O293        C303   1.285       .  A
O293       Al295   1.957       .  S
O294        C307   1.252       .  A
O294       Al304   1.876       .  S
Al295       O308   1.924       .  S
Al295       O305   1.975       .  S
Al295      O1215   1.874       .  S
Al295       O300   1.796       .  S
O296        C303   1.272       .  A
O296       Al304   1.927       .  S
O297        C306   1.257       .  A
O297       Al304   1.917       .  S
O298       Al304   1.846       .  S
O299        C306   1.243       .  A
O300       Al304   1.775       .  S
O301        C302   1.272       .  A
O301      Al1219   1.935       .  S
C302        C572   1.450       .  S
C303        C392   1.495       .  S
C306        C596   1.482       .  S
C307        O308   1.262       .  A
C307        C404   1.475       .  S
O309        C324   1.272       .  A
O309       Al317   1.927       .  S
C310        O320   1.265       .  A
C310        O311   1.261       .  A
C310        C485   1.457       .  S
O311       Al313   1.873       .  S
O312        C314   1.265       .  A
O312       Al313   1.919       .  S
Al313       O321   1.933       .  S
Al313       O323   1.887       .  S
Al313       O322   1.773       .  S
C314        O327   1.281       .  A
C314        C356   1.505       .  S
O315        C325   1.276       .  A
O315       Al317   2.012       .  S
O316        C329   1.268       .  A
O316       Al326   1.936       .  S
Al317       O330   1.862       .  S
Al317       O327   1.971       .  S
Al317       O322   1.786       .  S
O318        C325   1.247       .  A
O318       Al326   1.863       .  S
O319        C328   1.250       .  A
O319       Al326   1.853       .  S
O320       Al326   1.914       .  S
O321        C328   1.262       .  A
O322       Al326   1.769       .  S
O323        C324   1.262       .  A
C324        C608   1.487       .  S
C325        C380   1.524       .  S
C328        C533   1.468       .  S
C329        O330   1.255       .  A
C329        C500   1.476       .  S
O331        C346   1.258       .  A
O331       Al339   1.906       .  S
C332        O342   1.270       .  A
C332        O333   1.276       .  A
C332        C632   1.450       .  S
O333       Al335   1.924       .  S
O334        C336   1.257       .  A
O334       Al335   1.878       .  S
Al335       O343   1.919       .  S
Al335       O345   1.857       .  S
Al335       O344   1.774       .  S
C336        O349   1.278       .  A
C336        C353   1.504       .  S
O337        C347   1.274       .  A
O337      Al1267   1.986       .  S
O338        C351   1.278       .  A
O338      Al1276   1.906   1_554  S
Al339       O352   1.909   1_556  S
Al339      O1265   1.977       .  S
Al339      O1277   1.968       .  S
Al339      O1272   1.787       .  S
O340        C347   1.237       .  A
O340       Al348   1.822       .  S
O341        C350   1.243       .  A
O341       Al348   1.885       .  S
O342       Al348   1.880       .  S
O343        C350   1.247       .  A
O344       Al348   1.780       .  S
O344      Al1267   1.790       .  S
O345       C1274   1.253       .  A
C346       O1273   1.254       .  A
C346        C464   1.485   1_556  S
C347       C1296   1.503       .  S
Al348      O1266   1.902       .  S
O349      Al1267   1.974       .  S
C350        C677   1.486       .  S
C351        O352   1.273       .  A
C351        C644   1.455       .  S
C353        C354   1.406       .  A
C353        C358   1.419       .  A
C354        C355   1.414       .  A
C354        H363   1.078       .  S
C355        C356   1.416       .  A
C355        S359   1.804       .  S
C356        C357   1.407       .  A
C357        C358   1.416       .  A
C357        H364   1.079       .  S
C358        S360   1.801       .  S
S359        H362   1.407       .  S
S360        H361   1.406       .  S
C365        C366   1.418       .  A
C365       C1298   1.420   1_554  A
C366        C367   1.414       .  A
C366        H375   1.083       .  S
C367        C368   1.412   1_554  A
C367        S371   1.799       .  S
C368       C1275   1.499       .  S
C368       C1297   1.413       .  A
C369        C370   1.412       .  A
C369       C1296   1.416       .  A
C369        H376   1.084       .  S
C370       C1293   1.417       .  A
C370        S372   1.801       .  S
S371        H374   1.406       .  S
S372        H373   1.408       .  S
C377        C378   1.408       .  A
C377        C382   1.423   1_655  A
C378        C379   1.410   1_655  A
C378        H387   1.083       .  S
C379        C380   1.424       .  A
C379        S383   1.804   1_455  S
C380        C381   1.411       .  A
C381        C382   1.421       .  A
C381        H388   1.081       .  S
C382        S384   1.806       .  S
S383        H386   1.407   1_655  S
S384        H385   1.407       .  S
C389        C390   1.411       .  A
C389        C394   1.414       .  A
C390        C391   1.413       .  A
C390        H399   1.084       .  S
C391        C392   1.415       .  A
C391        S395   1.803       .  S
C392        C393   1.408       .  A
C393        C394   1.410       .  A
C393        H400   1.084       .  S
C394        S396   1.801       .  S
S395        H398   1.406       .  S
S396        H397   1.405       .  S
C401        C406   1.409       .  A
C401       C1330   1.397       .  A
C402        C403   1.393   1_556  A
C402       C1329   1.396       .  A
C402        H411   1.080       .  S
C403        C404   1.418       .  A
C403        S407   1.803       .  S
C404       C1333   1.406   1_554  A
C405        C406   1.398       .  A
C405       C1332   1.404       .  A
C405        H412   1.084       .  S
C406        S408   1.803       .  S
S407        H410   1.408       .  S
S408        H409   1.407       .  S
C413        C414   1.399       .  A
C413        C418   1.410       .  A
C414        C415   1.395       .  A
C414        H423   1.082       .  S
C415        C416   1.409       .  A
C415        S419   1.797       .  S
C416        C417   1.396       .  A
C417        C418   1.388       .  A
C417        H424   1.084       .  S
C418        S420   1.802       .  S
S419        H422   1.405       .  S
S420        H421   1.406       .  S
C425        C426   1.404       .  A
C425        C430   1.410       .  A
C426        C427   1.391       .  A
C426        H435   1.083       .  S
C427        C428   1.409       .  A
C427        S431   1.806       .  S
C428        C429   1.404       .  A
C429        C430   1.394       .  A
C429        H436   1.083       .  S
C430        S432   1.808       .  S
S431        H434   1.406       .  S
S432        H433   1.407       .  S
C437        C438   1.402       .  A
C437        C442   1.417       .  A
C438        C439   1.411       .  A
C438        H447   1.076       .  S
C439        C440   1.417       .  A
C439        S443   1.801       .  S
C440        C441   1.405       .  A
C441        C442   1.411       .  A
C441        H448   1.083   1_455  S
C442        S444   1.798       .  S
S443        H446   1.405       .  S
S444        H445   1.407       .  S
C449        C450   1.406       .  A
C449        C454   1.422       .  A
C450        C451   1.392       .  A
C450        H459   1.083       .  S
C451        C452   1.411       .  A
C451        S455   1.805       .  S
C452        C453   1.401       .  A
C453        C454   1.404       .  A
C453        H460   1.082       .  S
C454        S456   1.810       .  S
S455        H458   1.407       .  S
S456        H457   1.407       .  S
C461        C462   1.399       .  A
C461       C1394   1.404       .  A
C462        C463   1.401       .  A
C462        H471   1.084       .  S
C463        C464   1.420       .  A
C463        S467   1.800       .  S
C464       C1393   1.407       .  A
C465        C466   1.388       .  A
C465       C1392   1.401       .  A
C465        H472   1.084       .  S
C466       C1389   1.411       .  A
C466        S468   1.805       .  S
S467        H470   1.406       .  S
S468        H469   1.400       .  S
C473        C474   1.408   1_455  A
C473        C478   1.427       .  A
C474        C475   1.412   1_554  A
C474        H483   1.083   1_554  S
C475       C1404   1.426   1_655  A
C475       S1407   1.803       .  S
C476       C1403   1.423   1_455  A
C476       C1405   1.407       .  A
C477        C478   1.410       .  A
C477       C1404   1.406   1_554  A
C477        H484   1.083       .  S
C478        S480   1.805       .  S
S479       C1403   1.804       .  S
S479        H482   1.408   1_655  S
S480        H481   1.405       .  S
C485        C486   1.397       .  A
C485        C490   1.407       .  A
C486        C487   1.398       .  A
C486        H495   1.083       .  S
C487        C488   1.419       .  A
C487        S491   1.810       .  S
C488        C489   1.403       .  A
C489        C490   1.389       .  A
C489        H496   1.084       .  S
C490        S492   1.801       .  S
S491        H494   1.407       .  S
S492        H493   1.407       .  S
C497        C498   1.394       .  A
C497        C502   1.408       .  A
C498        C499   1.394       .  A
C498        H507   1.084       .  S
C499        C500   1.422       .  A
C499        S503   1.803       .  S
C500        C501   1.403       .  A
C501        C502   1.392       .  A
C501        H508   1.084       .  S
C502        S504   1.801       .  S
S503        H506   1.408       .  S
S504        H505   1.407       .  S
C509        C510   1.410       .  A
C509        C514   1.421   1_565  A
C510        C511   1.411   1_565  A
C510        H519   1.083   1_455  S
C511        C512   1.419       .  A
C511        S515   1.804   1_445  S
C512        C513   1.411       .  A
C513        C514   1.414       .  A
C513        H520   1.083       .  S
C514        S516   1.802       .  S
S515        H518   1.407   1_665  S
S516        H517   1.407   1_445  S
C521        C522   1.403       .  A
C521        C526   1.417       .  A
C522        C523   1.409       .  A
C522        H531   1.077       .  S
C523        C524   1.416       .  A
C523        S527   1.800       .  S
C524        C525   1.405       .  A
C525        C526   1.412       .  A
C525        H532   1.083       .  S
C526        S528   1.799       .  S
S527        H530   1.407   1_455  S
S528        H529   1.406   1_455  S
C533        C534   1.399       .  A
C533        C538   1.412       .  A
C534        C535   1.397       .  A
C534        H543   1.083       .  S
C535        C536   1.418       .  A
C535        S539   1.802       .  S
C536        C537   1.402       .  A
C537        C538   1.396       .  A
C537        H544   1.081       .  S
C538        S540   1.810       .  S
S539        H542   1.408       .  S
S540        H541   1.407   1_455  S
C545        C546   1.401       .  A
C545        C550   1.417       .  A
C546        C547   1.394       .  A
C546        H555   1.084       .  S
C547        C548   1.420       .  A
C547        S551   1.804       .  S
C548        C549   1.405       .  A
C549        C550   1.402       .  A
C549        H556   1.084       .  S
C550        S552   1.802       .  S
S551        H554   1.408       .  S
S552        H553   1.408       .  S
C557        C558   1.400       .  A
C557        C562   1.408       .  A
C558        C559   1.397       .  A
C558        H567   1.080       .  S
C559        C560   1.409       .  A
C559        S563   1.801       .  S
C560        C561   1.399       .  A
C561        C562   1.385       .  A
C561        H568   1.085       .  S
C562        S564   1.802       .  S
S563        H566   1.406       .  S
S564        H565   1.404       .  S
C569        C570   1.401       .  A
C569        C574   1.411       .  A
C570        C571   1.384       .  A
C570        H579   1.085       .  S
C571        C572   1.406       .  A
C571        S575   1.804       .  S
C572        C573   1.399       .  A
C573        C574   1.396       .  A
C573        H580   1.079       .  S
C574        S576   1.802       .  S
S575        H578   1.404       .  S
S576        H577   1.405       .  S
C581        C582   1.410       .  A
C581        C586   1.416       .  A
C582        C583   1.413       .  A
C582        H591   1.076       .  S
C583        C584   1.415       .  A
C583        S587   1.804       .  S
C584        C585   1.413       .  A
C585        C586   1.420       .  A
C585        H592   1.083       .  S
C586        S588   1.800       .  S
S587        H590   1.405       .  S
S588        H589   1.405       .  S
C593        C598   1.413       .  A
C593       C1522   1.399       .  A
C594       C1521   1.391       .  A
C594       C1523   1.388       .  A
C594        H603   1.075       .  S
C595        C596   1.421       .  A
C595       C1522   1.390       .  A
C595       S1527   1.806       .  S
C596        C597   1.405       .  A
C597        C598   1.401       .  A
C597        H604   1.083       .  S
C598        S600   1.799       .  S
S599       C1523   1.813       .  S
S599        H602   1.407       .  S
S600        H601   1.408       .  S
C605        C606   1.398       .  A
C605        C610   1.411       .  A
C606        C607   1.401       .  A
C606        H615   1.083       .  S
C607        C608   1.422       .  A
C607        S611   1.800       .  S
C608        C609   1.405       .  A
C609        C610   1.391       .  A
C609        H616   1.083       .  S
C610        S612   1.805       .  S
S611        H614   1.408       .  S
S612        H613   1.407       .  S
C617        C618   1.410       .  A
C617        C622   1.429       .  A
C618        C619   1.416       .  A
C618        H627   1.083       .  S
C619        C620   1.426       .  A
C619        S623   1.801       .  S
C620        C621   1.408       .  A
C621        C622   1.416       .  A
C621        H628   1.083       .  S
C622        S624   1.800       .  S
S623        H626   1.407       .  S
S624        H625   1.402       .  S
C629        C630   1.406       .  A
C629        C634   1.428       .  A
C630        C631   1.397       .  A
C630        H639   1.084       .  S
C631        C632   1.407       .  A
C631        S635   1.804       .  S
C632        C633   1.389       .  A
C633        C634   1.392       .  A
C633        H640   1.084       .  S
C634        S636   1.814       .  S
S635        H638   1.404       .  S
S636        H637   1.406       .  S
C641        C642   1.408       .  A
C641        C646   1.410       .  A
C642        C643   1.391       .  A
C642        H651   1.084       .  S
C643        C644   1.404       .  A
C643        S647   1.800       .  S
C644        C645   1.401       .  A
C645        C646   1.394       .  A
C645        H652   1.084       .  S
C646        S648   1.795       .  S
S647        H650   1.404       .  S
S648        H649   1.407       .  S
C653        C658   1.421   1_565  A
C653       C1582   1.410       .  A
C654        C655   1.413   1_565  A
C654       C1581   1.411       .  A
C654        H663   1.083       .  S
C655       C1584   1.421       .  A
C655        S659   1.803       .  S
C656       C1077   1.519       .  S
C656        C657   1.410   1_556  A
C656       C1583   1.424       .  A
C657        C658   1.411       .  A
C657        H664   1.083       .  S
C658        S660   1.803       .  S
S659        H662   1.407       .  S
S660        H661   1.407       .  S
C665        C666   1.410       .  A
C665        C670   1.415       .  A
C666        C667   1.411       .  A
C666        H675   1.084       .  S
C667        C668   1.414       .  A
C667        S671   1.804       .  S
C668        C669   1.411       .  A
C669        C670   1.416       .  A
C669        H676   1.084       .  S
C670        S672   1.799       .  S
S671        H674   1.406       .  S
S672        H673   1.405       .  S
C677        C678   1.406       .  A
C677       C1610   1.414       .  A
C678        C679   1.394       .  A
C678        H687   1.084       .  S
C679       C1608   1.415       .  A
C679        S683   1.801       .  S
C680        C681   1.409       .  A
C680       C1607   1.416   1_554  A
C681        C682   1.401   1_554  A
C681        H688   1.081       .  S
C682       C1605   1.413       .  A
C682        S684   1.803       .  S
S683        H686   1.404       .  S
S684        H685   1.407       .  S
C689        C690   1.401       .  A
C689        C694   1.419       .  A
C690        C691   1.396       .  A
C690        H699   1.084       .  S
C691        C692   1.417       .  A
C691        S695   1.803       .  S
C692        C693   1.399       .  A
C693        C694   1.394       .  A
C693        H700   1.084       .  S
C694        S696   1.804       .  S
S695        H698   1.408       .  S
S696        H697   1.405       .  S
C701        C702   1.397       .  A
C701        C706   1.406       .  A
C702        C703   1.390       .  A
C702        H711   1.081       .  S
C703        C704   1.415       .  A
C703        S707   1.800       .  S
C704        C705   1.407       .  A
C705        C706   1.390       .  A
C705        H712   1.084       .  S
C706        S708   1.805       .  S
S707        H710   1.406       .  S
S708        H709   1.407       .  S
C713        C714   1.401       .  A
C713        C718   1.410       .  A
C714        C715   1.386       .  A
C714        H723   1.080       .  S
C715        C716   1.408       .  A
C715        S719   1.800       .  S
C716        C717   1.406       .  A
C717        C718   1.394       .  A
C717        H724   1.084       .  S
C718        S720   1.801       .  S
S719        H722   1.407       .  S
S720        H721   1.408       .  S
C725        C726   1.404       .  A
C725        C730   1.424       .  A
C726        C727   1.394       .  A
C726        H735   1.084       .  S
C727        C728   1.412       .  A
C727        S731   1.803       .  S
C728        C729   1.398       .  A
C729        C730   1.399       .  A
C729        H736   1.082       .  S
C730        S732   1.802       .  S
S731        H734   1.407       .  S
S732        H733   1.408       .  S
C737        C742   1.415       .  A
C737       C1666   1.401       .  A
C738        C739   1.396       .  A
C738       C1665   1.401   1_554  A
C738        H747   1.084       .  S
C739        C740   1.418       .  A
C739        S743   1.803       .  S
C740       C1669   1.401   1_554  A
C741        C742   1.398       .  A
C741       C1668   1.402       .  A
C741        H748   1.084       .  S
C742        S744   1.805       .  S
S743        H746   1.407       .  S
S744        H745   1.408       .  S
C749        C750   1.409       .  A
C749        C754   1.411       .  A
C750        C751   1.411       .  A
C750        H759   1.084   1_545  S
C751        C752   1.413       .  A
C751        S755   1.799   1_545  S
C752        C753   1.410       .  A
C753        C754   1.418       .  A
C753        H760   1.081       .  S
C754        S756   1.801       .  S
S755        H758   1.407   1_565  S
S756        H757   1.407       .  S
C761        C762   1.404       .  A
C761        C766   1.413       .  A
C762        C763   1.400       .  A
C762        H771   1.083       .  S
C763        C764   1.412       .  A
C763        S767   1.805       .  S
C764        C765   1.405       .  A
C765        C766   1.396       .  A
C765        H772   1.084       .  S
C766        S768   1.803   1_565  S
S767        H770   1.407       .  S
S768        H769   1.397   1_544  S
C773        C774   1.409       .  A
C773        C778   1.415       .  A
C774        C775   1.394       .  A
C774        H783   1.082       .  S
C775        C776   1.409       .  A
C775        S779   1.809       .  S
C776        C777   1.404       .  A
C777        C778   1.394       .  A
C777        H784   1.084       .  S
C778        S780   1.806       .  S
S779        H782   1.407   1_565  S
S780        H781   1.407       .  S
C785        C786   1.400       .  A
C785        C790   1.410       .  A
C786        C787   1.389       .  A
C786        H795   1.084       .  S
C787        C788   1.408       .  A
C787        S791   1.797       .  S
C788        C789   1.402       .  A
C789        C790   1.390       .  A
C789        H796   1.084       .  S
C790        S792   1.804       .  S
S791        H794   1.406       .  S
S792        H793   1.407       .  S
C797        C798   1.399       .  A
C797        C802   1.411       .  A
C798        C799   1.404       .  A
C798        H807   1.083       .  S
C799        C800   1.424       .  A
C799        S803   1.812       .  S
C800        C801   1.406       .  A
C801        C802   1.395       .  A
C801        H808   1.083       .  S
C802        S804   1.805       .  S
S803        H806   1.406       .  S
S804        H805   1.407       .  S
C809        C810   1.410       .  A
C809        C814   1.424       .  A
C810        C811   1.415       .  A
C810        H819   1.083       .  S
C811        C812   1.425       .  A
C811        S815   1.802       .  S
C812        C813   1.410       .  A
C813        C814   1.415       .  A
C813        H820   1.083       .  S
C814        S816   1.804       .  S
S815        H818   1.407       .  S
S816        H817   1.407       .  S
C821        C822   1.400       .  A
C821        C826   1.405       .  A
C822        C823   1.393       .  A
C822        H831   1.084       .  S
C823        C824   1.415       .  A
C823        S827   1.800       .  S
C824        C825   1.406       .  A
C825        C826   1.391       .  A
C825        H832   1.082       .  S
C826        S828   1.806       .  S
S827        H830   1.408       .  S
S828        H829   1.407       .  S
C833        C834   1.402       .  A
C833        C838   1.411       .  A
C834        C835   1.399       .  A
C834        H843   1.083       .  S
C835        C836   1.413       .  A
C835        S839   1.809       .  S
C836        C837   1.400       .  A
C837        C838   1.389       .  A
C837        H844   1.084       .  S
C838        S840   1.796       .  S
S839        H842   1.406       .  S
S840        H841   1.408       .  S
C845        C846   1.396       .  A
C845        C850   1.410       .  A
C846        C847   1.389       .  A
C846        H855   1.085       .  S
C847        C848   1.414       .  A
C847        S851   1.806       .  S
C848        C849   1.403       .  A
C849        C850   1.407       .  A
C849        H856   1.083       .  S
C850        S852   1.805       .  S
S851        H854   1.398       .  S
S852        H853   1.407       .  S
C857        C858   1.404       .  A
C857       C1790   1.423       .  A
C858        C859   1.390       .  A
C858        H867   1.083       .  S
C859        C860   1.411       .  A
C859        S863   1.805       .  S
C860        C861   1.400       .  A
C861       C1790   1.406       .  A
C861       H1796   1.083       .  S
C862       C1785   1.424       .  A
C862       C1789   1.404       .  A
C862        S864   1.810       .  S
S863        H866   1.402       .  S
S864        H865   1.407       .  S
H868       C1789   1.083       .  S
C869        C989   1.491       .  S
C869        C870   1.405   1_566  A
C869        C874   1.416   1_455  A
C870        C871   1.416       .  A
C870        H879   1.083       .  S
C871        C872   1.425   1_445  A
C871        S875   1.809       .  S
C872        C873   1.410   1_554  A
C873        C874   1.410       .  A
C873        H880   1.083       .  S
C874       S1804   1.803       .  S
S875        H878   1.407       .  S
S876       C1802   1.804       .  S
S876        H877   1.407   1_655  S
C881        C882   1.405       .  A
C881        C886   1.419       .  A
C882        C883   1.418   1_545  A
C882        H891   1.081   1_545  S
C883        C884   1.420   1_565  A
C883        S887   1.797       .  S
C884        C885   1.406       .  A
C885        C886   1.416       .  A
C885        H892   1.083       .  S
C886        S888   1.803       .  S
S887        H890   1.406       .  S
S888        H889   1.407       .  S
C893        C894   1.410       .  A
C893       C1826   1.413   1_554  A
C894        C895   1.399   1_554  A
C894        H903   1.084       .  S
C895       C1824   1.413       .  A
C895        S899   1.801       .  S
C896        C897   1.402       .  A
C896       C1823   1.411       .  A
C897        C898   1.393       .  A
C897        H904   1.085       .  S
C898       C1821   1.417       .  A
C898        S900   1.801       .  S
S899        H902   1.395       .  S
S900        H901   1.405       .  S
C905        C906   1.401       .  A
C905        C910   1.418       .  A
C906        C907   1.391       .  A
C906        H915   1.084       .  S
C907        C908   1.411       .  A
C907        S911   1.794       .  S
C908        C909   1.402       .  A
C909        C910   1.407       .  A
C909        H916   1.082       .  S
C910        S912   1.807       .  S
S911        H914   1.408       .  S
S912        H913   1.406       .  S
C917        C918   1.399       .  A
C917        C922   1.401       .  A
C918        C919   1.401       .  A
C918        H927   1.083       .  S
C919        C920   1.420       .  A
C919        S923   1.810       .  S
C920        C921   1.412       .  A
C921        C922   1.397       .  A
C921        H928   1.082       .  S
C922        S924   1.806       .  S
S923        H926   1.407       .  S
S924        H925   1.407       .  S
O929        C944   1.263   1_554  A
C930        O940   1.259       .  A
C930        O931   1.264       .  A
C930       C1845   1.461       .  S
O931       Al933   1.914       .  S
O932        C934   1.245       .  A
O932       Al933   1.864       .  S
Al933       O941   1.842       .  S
Al933       O942   1.772       .  S
C934        O947   1.268   1_545  A
C934       C1800   1.519       .  S
O935        C945   1.285       .  A
O935       Al937   1.967       .  S
O936        C949   1.260       .  A
O936       Al946   1.888       .  S
Al937       O950   1.924       .  S
Al937       O947   1.989   1_545  S
Al937       O942   1.798       .  S
O938        C945   1.269       .  A
O938       Al946   1.928       .  S
O939        C948   1.260       .  A
O939       Al946   1.928       .  S
O940       Al946   1.878       .  S
O941        C948   1.245       .  A
O942       Al946   1.773       .  S
O943        C944   1.271   1_554  A
C944       C1833   1.484       .  S
C945       C1812   1.503       .  S
C948       C1788   1.470       .  S
C949        O950   1.263       .  A
C949       C1821   1.483       .  S
O951        C966   1.263       .  A
O951       Al959   1.869       .  S
C952        O962   1.260       .  A
C952        O953   1.263       .  A
C952       C1761   1.474       .  S
O953       Al955   1.896       .  S
O954        C956   1.245       .  A
O954       Al955   1.864       .  S
Al955       O963   1.853       .  S
Al955       O965   1.929       .  S
Al955       O964   1.785       .  S
C956        O969   1.264       .  A
C956       C1740   1.517       .  S
O957        C967   1.284       .  A
O957       Al959   1.970       .  S
O958        C971   1.254       .  A
O958       Al968   1.878       .  S
Al959       O972   1.916       .  S
Al959       O969   1.977       .  S
Al959       O964   1.807       .  S
O960        C967   1.270       .  A
O960       Al968   1.930       .  S
O961        C970   1.258       .  A
O961       Al968   1.920       .  S
O962       Al968   1.878       .  S
O963        C970   1.247       .  A
O964       Al968   1.781       .  S
O965        C966   1.270       .  A
C966       C1749   1.466       .  S
C967       C1809   1.508       .  S
C970       C1725   1.479       .  S
C971        O972   1.261       .  A
C971       C1773   1.462       .  S
O973        C988   1.255       .  A
O973       Al981   1.900       .  S
C974        O984   1.269       .  A
C974        O975   1.279       .  A
C974       C1713   1.464       .  S
O975       Al977   1.929       .  S
O976        C978   1.259       .  A
O976       Al977   1.880       .  S
Al977       O985   1.910       .  S
Al977       O987   1.878       .  S
Al977       O986   1.775       .  S
C978        O991   1.278       .  A
C978       C1680   1.499       .  S
O979        C989   1.269       .  A
O980        C993   1.273       .  A
Al981       O994   1.911       .  S
O982        C989   1.239       .  A
O982       Al990   1.841       .  S
O983        C992   1.244       .  A
O983       Al990   1.887       .  S
O984       Al990   1.867       .  S
O985        C992   1.250       .  A
O986       Al990   1.782       .  S
C988       C1689   1.472       .  S
C992       C1665   1.471       .  S
C993        O994   1.276       .  A
C993       C1701   1.475       .  S
O995       C1010   1.268       .  A
O995      Al1003   1.932       .  S
C996       O1006   1.261       .  A
C996        O997   1.261       .  A
C996       C1641   1.459       .  S
O997       Al999   1.867       .  S
O998       C1000   1.269       .  A
O998       Al999   1.925       .  S
Al999      O1007   1.924       .  S
Al999      O1009   1.896       .  S
Al999      O1008   1.772       .  S
C1000      O1013   1.281   1_565  A
C1000      C1677   1.496   1_565  S
O1001      C1011   1.268       .  A
O1001     Al1003   1.991   1_545  S
O1002      C1015   1.268       .  A
O1002     Al1012   1.924       .  S
Al1003     O1016   1.861       .  S
Al1003     O1013   1.956   1_565  S
Al1003     O1008   1.798       .  S
O1004      C1011   1.244   1_565  A
O1004     Al1012   1.862       .  S
O1005      C1014   1.245       .  A
O1005     Al1012   1.843       .  S
O1006     Al1012   1.889       .  S
O1007      C1014   1.259       .  A
O1008     Al1012   1.774       .  S
O1009      C1010   1.260       .  A
C1010      C1653   1.489       .  S
C1011      C1737   1.520       .  S
C1014      C1617   1.475       .  S
C1015      O1016   1.262       .  A
C1015      C1632   1.459       .  S
O1017      C1032   1.261   1_554  A
C1018      O1028   1.262       .  A
C1018      O1019   1.263       .  A
C1018      C1629   1.462       .  S
O1019     Al1021   1.895       .  S
O1020      C1022   1.246       .  A
O1020     Al1021   1.865       .  S
Al1021     O1029   1.856       .  S
Al1021     O1030   1.778       .  S
C1022      O1035   1.267       .  A
C1022      C1581   1.520       .  S
O1023      C1033   1.282       .  A
O1023     Al1025   1.966       .  S
O1024      C1037   1.261       .  A
O1024     Al1034   1.894       .  S
Al1025     O1038   1.934       .  S
Al1025     O1035   1.984       .  S
Al1025     O1030   1.798       .  S
O1026      C1033   1.268       .  A
O1026     Al1034   1.927       .  S
O1027      C1036   1.255       .  A
O1027     Al1034   1.911       .  S
O1028     Al1034   1.864       .  S
O1029      C1036   1.248       .  A
O1030     Al1034   1.775       .  S
O1031      C1032   1.261   1_554  A
C1032      C1644   1.458       .  S
C1033      C1593   1.505       .  S
C1036      C1692   1.476       .  S
C1037      O1038   1.267       .  A
C1037      C1608   1.488       .  S
O1039      C1054   1.256       .  A
O1039     Al1047   1.841       .  S
C1040      O1050   1.259       .  A
C1040      O1041   1.271       .  A
C1040      C1569   1.480       .  S
O1041     Al1043   1.933       .  S
O1042      C1044   1.243       .  A
O1042     Al1043   1.858       .  S
Al1043     O1051   1.845       .  S
Al1043     O1053   1.958       .  S
Al1043     O1052   1.777       .  S
C1044      O1057   1.267       .  A
C1044      C1545   1.529       .  S
O1045      C1055   1.286       .  A
O1045     Al1047   1.969       .  S
O1046      C1059   1.256       .  A
O1046     Al1056   1.871       .  S
Al1047     O1060   1.935       .  S
Al1047     O1057   1.993       .  S
Al1047     O1052   1.799       .  S
O1048      C1055   1.267       .  A
O1048     Al1056   1.918       .  S
O1049      C1058   1.253       .  A
O1049     Al1056   1.907       .  S
O1050     Al1056   1.845       .  S
O1051      C1058   1.244       .  A
O1052     Al1056   1.775       .  S
O1053      C1054   1.279       .  A
C1054      C1557   1.479       .  S
C1055      C1596   1.500       .  S
C1058      C1533   1.463       .  S
C1059      O1060   1.268       .  A
C1059      C1620   1.474       .  S
O1061      C1076   1.264       .  A
O1061     Al1069   1.914       .  S
C1062      O1072   1.262       .  A
C1062      O1063   1.262       .  A
C1062      C1752   1.471       .  S
O1063     Al1065   1.873       .  S
O1064      C1066   1.270       .  A
O1064     Al1065   1.927       .  S
Al1065     O1073   1.929       .  S
Al1065     O1075   1.907       .  S
Al1065     O1074   1.776       .  S
C1066      O1079   1.284       .  A
C1066      C1509   1.502       .  S
O1067      C1077   1.266       .  A
O1068      C1081   1.270       .  A
Al1069     O1082   1.878       .  S
O1070      C1077   1.244       .  A
O1070     Al1078   1.864       .  S
O1071      C1080   1.247       .  A
O1071     Al1078   1.846       .  S
O1072     Al1078   1.897       .  S
O1073      C1080   1.258       .  A
O1074     Al1078   1.774       .  S
C1076      C1521   1.462       .  S
C1080      C1824   1.481       .  S
C1081      O1082   1.263       .  A
C1081      C1764   1.463       .  S
O1083      C1098   1.264       .  A
O1083     Al1091   1.939       .  S
C1084      O1094   1.264       .  A
C1084      O1085   1.256       .  A
C1084      C1497   1.460       .  S
O1085     Al1087   1.854       .  S
O1086      C1088   1.270       .  A
O1086     Al1087   1.921       .  S
Al1087     O1095   1.907       .  S
Al1087     O1097   1.886       .  S
Al1087     O1096   1.774       .  S
C1088      O1101   1.288       .  A
C1088      C1512   1.499       .  S
O1089      C1099   1.266       .  A
O1089     Al1091   1.994       .  S
O1090      C1103   1.273       .  A
O1090     Al1100   1.935       .  S
Al1091     O1104   1.870       .  S
Al1091     O1101   1.966       .  S
Al1091     O1096   1.798       .  S
O1092      C1099   1.245       .  A
O1092     Al1100   1.867       .  S
O1093      C1102   1.246       .  A
O1093     Al1100   1.857       .  S
O1094     Al1100   1.909       .  S
O1095      C1102   1.258       .  A
O1096     Al1100   1.787       .  S
O1097      C1098   1.253       .  A
C1098      C1728   1.495       .  S
C1099      C1548   1.528       .  S
C1102      C1476   1.480       .  S
C1103      O1104   1.267       .  A
C1103      C1485   1.459       .  S
O1105      C1120   1.264       .  A
O1105     Al1113   1.863       .  S
C1106      O1116   1.260       .  A
C1106      O1107   1.262       .  A
C1106      C1704   1.465       .  S
O1107     Al1109   1.892       .  S
O1108      C1110   1.244       .  A
O1108     Al1109   1.869       .  S
Al1109     O1117   1.862       .  S
Al1109     O1119   1.929       .  S
Al1109     O1118   1.783       .  S
C1110      O1123   1.261       .  A
C1110      C1437   1.511       .  S
O1111      C1121   1.284       .  A
O1111     Al1113   1.964       .  S
O1112      C1125   1.256       .  A
O1112     Al1122   1.887       .  S
Al1113     O1126   1.918       .  S
Al1113     O1123   1.964       .  S
Al1113     O1118   1.801       .  S
O1114      C1121   1.268       .  A
O1114     Al1122   1.920       .  S
O1115      C1124   1.253       .  A
O1115     Al1122   1.901       .  S
O1116     Al1122   1.859       .  S
O1117      C1124   1.248       .  A
O1118     Al1122   1.779       .  S
O1119      C1120   1.273       .  A
C1120      C1716   1.455       .  S
C1121      C1452   1.498       .  S
C1124      C1656   1.475       .  S
C1125      O1126   1.263       .  A
C1125      C1464   1.481       .  S
O1127      C1142   1.257   1_554  A
C1128      O1138   1.259       .  A
C1128      O1129   1.265       .  A
C1128      C1425   1.463       .  S
O1129     Al1131   1.925       .  S
O1130      C1132   1.249       .  A
O1130     Al1131   1.863       .  S
Al1131     O1139   1.846       .  S
Al1131     O1140   1.774       .  S
C1132      O1145   1.276       .  A
C1132      C1401   1.521       .  S
O1133      C1143   1.278       .  A
O1133     Al1135   1.953       .  S
O1134      C1147   1.258       .  A
O1134     Al1144   1.873       .  S
Al1135     O1148   1.945       .  S
Al1135     O1145   2.004       .  S
Al1135     O1140   1.788       .  S
O1136      C1143   1.266       .  A
O1136     Al1144   1.922       .  S
O1137      C1146   1.264       .  A
O1137     Al1144   1.945       .  S
O1138     Al1144   1.875       .  S
O1139      C1146   1.247       .  A
O1140     Al1144   1.772       .  S
O1141      C1142   1.269   1_554  A
C1142      C1416   1.484       .  S
C1143      C1449   1.497       .  S
C1146      C1389   1.464       .  S
C1147      O1148   1.271       .  A
C1147      C1668   1.477       .  S
O1149      C1164   1.267       .  A
O1149     Al1157   1.923       .  S
C1150      O1160   1.264       .  A
C1150      O1151   1.262       .  A
C1150      C1836   1.469       .  S
O1151     Al1153   1.885       .  S
O1152      C1154   1.264       .  A
O1152     Al1153   1.915       .  S
Al1153     O1161   1.929       .  S
Al1153     O1163   1.892       .  S
Al1153     O1162   1.775       .  S
C1154      O1167   1.282       .  A
C1154      C1365   1.504   1_655  S
O1155      C1165   1.272   1_455  A
O1155     Al1157   1.985   1_455  S
O1156      C1169   1.264       .  A
O1156     Al1166   1.922       .  S
Al1157     O1170   1.882       .  S
Al1157     O1167   1.969       .  S
Al1157     O1162   1.791       .  S
O1158      C1165   1.251       .  A
O1158     Al1166   1.872       .  S
O1159      C1168   1.248       .  A
O1159     Al1166   1.853       .  S
O1160     Al1166   1.918       .  S
O1161      C1168   1.260       .  A
O1162     Al1166   1.780       .  S
O1163      C1164   1.260       .  A
C1164      C1377   1.490       .  S
C1165      C1440   1.511   1_655  S
C1168      C1776   1.460       .  S
C1169      O1170   1.262       .  A
C1169      C1848   1.486       .  S
O1171      C1186   1.267       .  A
C1172      O1182   1.258       .  A
C1172      O1173   1.259       .  A
C1172      C1353   1.461       .  S
O1173     Al1175   1.859       .  S
O1174      C1176   1.268       .  A
O1174     Al1175   1.922       .  S
Al1175     O1183   1.906       .  S
Al1175     O1185   1.890       .  S
Al1175     O1184   1.777       .  S
C1176      O1189   1.285       .  A
C1176      C1368   1.501   1_655  S
O1177      C1187   1.268   1_455  A
O1177     Al1179   1.986   1_455  S
O1178      C1191   1.271       .  A
Al1179     O1189   1.966       .  S
Al1179     O1184   1.792       .  S
O1180      C1187   1.244       .  A
O1180     Al1188   1.865       .  S
O1181      C1190   1.247       .  A
O1181     Al1188   1.848       .  S
O1182     Al1188   1.883       .  S
O1183      C1190   1.256       .  A
O1184     Al1188   1.787       .  S
C1186      C1785   1.488       .  S
C1187      C1404   1.518   1_655  S
C1190      C1329   1.458       .  S
C1191      O1192   1.263       .  A
C1191      C1341   1.460       .  S
O1193      C1208   1.266       .  A
O1193     Al1201   1.862       .  S
C1194      O1204   1.257       .  A
C1194      O1195   1.260       .  A
C1194      C1344   1.449       .  S
O1195     Al1197   1.890       .  S
O1196      C1198   1.246       .  A
O1196     Al1197   1.872       .  S
Al1197     O1205   1.868       .  S
Al1197     O1207   1.918       .  S
Al1197     O1206   1.786       .  S
C1198      O1211   1.264       .  A
C1198      C1305   1.520       .  S
O1199      C1209   1.283       .  A
O1199     Al1201   1.954       .  S
O1200      C1213   1.253       .  A
O1200     Al1210   1.882       .  S
Al1201     O1214   1.937       .  S
Al1201     O1211   1.978       .  S
Al1201     O1206   1.803       .  S
O1202      C1209   1.270       .  A
O1202     Al1210   1.916       .  S
O1203      C1212   1.255       .  A
O1203     Al1210   1.908       .  S
O1204     Al1210   1.864       .  S
O1205      C1212   1.249       .  A
O1206     Al1210   1.777       .  S
O1207      C1208   1.271       .  A
C1208      C1356   1.457       .  S
C1209      C1317   1.492       .  S
C1212      C1380   1.476       .  S
C1213      O1214   1.264       .  A
C1213      C1473   1.491       .  S
O1215      C1230   1.266   1_554  A
C1216      O1226   1.256       .  A
C1216      O1217   1.259       .  A
C1216      C1488   1.450       .  S
O1217     Al1219   1.888       .  S
O1218      C1220   1.244       .  A
O1218     Al1219   1.865       .  S
Al1219     O1227   1.840       .  S
Al1219     O1228   1.781       .  S
C1220      O1233   1.263       .  A
C1220      C1293   1.526       .  S
O1221      C1231   1.285       .  A
O1221     Al1223   1.950       .  S
O1222      C1235   1.249       .  A
O1222     Al1232   1.870       .  S
Al1223     O1236   1.929       .  S
Al1223     O1233   1.980       .  S
Al1223     O1228   1.802       .  S
O1224      C1231   1.273       .  A
O1224     Al1232   1.926       .  S
O1225      C1234   1.257       .  A
O1225     Al1232   1.910       .  S
O1226     Al1232   1.860       .  S
O1227      C1234   1.244       .  A
O1228     Al1232   1.775       .  S
O1229      C1230   1.272   1_554  A
C1230      C1500   1.456       .  S
C1231      C1320   1.492       .  S
C1234      C1524   1.478       .  S
C1235      O1236   1.260       .  A
C1235      C1332   1.472       .  S
O1237      C1252   1.271       .  A
O1237     Al1245   1.931       .  S
C1238      O1248   1.267       .  A
C1238      O1239   1.260       .  A
C1238      C1413   1.463       .  S
O1239     Al1241   1.871       .  S
O1240      C1242   1.264       .  A
O1240     Al1241   1.915       .  S
Al1241     O1249   1.932       .  S
Al1241     O1251   1.879       .  S
Al1241     O1250   1.771       .  S
C1242      O1255   1.281       .  A
C1242      C1284   1.501       .  S
O1243      C1253   1.274       .  A
O1243     Al1245   2.004       .  S
O1244      C1257   1.271       .  A
O1244     Al1254   1.945       .  S
Al1245     O1258   1.868       .  S
Al1245     O1255   1.968       .  S
Al1245     O1250   1.789       .  S
O1246      C1253   1.248       .  A
O1246     Al1254   1.866       .  S
O1247      C1256   1.249       .  A
O1247     Al1254   1.854       .  S
O1248     Al1254   1.931       .  S
O1249      C1256   1.261       .  A
O1250     Al1254   1.771       .  S
O1251      C1252   1.259       .  A
C1252      C1536   1.484       .  S
C1253      C1308   1.519       .  S
C1256      C1461   1.471       .  S
C1257      O1258   1.256       .  A
C1257      C1428   1.483       .  S
O1259      C1274   1.260       .  A
O1259     Al1267   1.916       .  S
C1260      O1270   1.270       .  A
C1260      O1261   1.278       .  A
C1260      C1560   1.450       .  S
O1261     Al1263   1.930       .  S
O1262      C1264   1.257       .  A
O1262     Al1263   1.879       .  S
Al1263     O1271   1.916       .  S
Al1263     O1273   1.861       .  S
Al1263     O1272   1.773       .  S
C1264      O1277   1.276       .  A
C1264      C1281   1.501       .  S
O1265      C1275   1.273       .  A
O1266      C1279   1.278       .  A
Al1267     O1280   1.908       .  S
O1268      C1275   1.239       .  A
O1268     Al1276   1.832       .  S
O1269      C1278   1.243       .  A
O1269     Al1276   1.888       .  S
O1270     Al1276   1.876       .  S
O1271      C1278   1.246       .  A
O1272     Al1276   1.780       .  S
C1274      C1392   1.476       .  S
C1278      C1605   1.484       .  S
C1279      O1280   1.275       .  A
C1279      C1572   1.464       .  S
C1281      C1282   1.405       .  A
C1281      C1286   1.419       .  A
C1282      C1283   1.413       .  A
C1282      H1291   1.079       .  S
C1283      C1284   1.416       .  A
C1283      S1287   1.805       .  S
C1284      C1285   1.406       .  A
C1285      C1286   1.414       .  A
C1285      H1292   1.080       .  S
C1286      S1288   1.802       .  S
S1287      H1290   1.407       .  S
S1288      H1289   1.405       .  S
C1293      C1294   1.419       .  A
C1294      C1295   1.414       .  A
C1294      H1303   1.083       .  S
C1295      C1296   1.411       .  A
C1295      S1299   1.799       .  S
C1297      C1298   1.411       .  A
C1297      H1304   1.084       .  S
C1298      S1300   1.800       .  S
S1299      H1302   1.406       .  S
S1300      H1301   1.407   1_556  S
C1305      C1306   1.409       .  A
C1305      C1310   1.421   1_655  A
C1306      C1307   1.411   1_655  A
C1306      H1315   1.083       .  S
C1307      C1308   1.422       .  A
C1307      S1311   1.805   1_455  S
C1308      C1309   1.411       .  A
C1309      C1310   1.419       .  A
C1309      H1316   1.082       .  S
C1310      S1312   1.807       .  S
S1311      H1314   1.407   1_655  S
S1312      H1313   1.407       .  S
C1317      C1318   1.407       .  A
C1317      C1322   1.414       .  A
C1318      C1319   1.406       .  A
C1318      H1327   1.085       .  S
C1319      C1320   1.413       .  A
C1319      S1323   1.798       .  S
C1320      C1321   1.408       .  A
C1321      C1322   1.413       .  A
C1321      H1328   1.084       .  S
C1322      S1324   1.798       .  S
S1323      H1326   1.405       .  S
S1324      H1325   1.406       .  S
C1329      C1334   1.407       .  A
C1330      C1331   1.393       .  A
C1330      H1339   1.082       .  S
C1331      C1332   1.415       .  A
C1331      S1335   1.804       .  S
C1333      C1334   1.394       .  A
C1333      H1340   1.084       .  S
C1334      S1336   1.803       .  S
S1335      H1338   1.408       .  S
S1336      H1337   1.407       .  S
C1341      C1342   1.401       .  A
C1341      C1346   1.413       .  A
C1342      C1343   1.396       .  A
C1342      H1351   1.083       .  S
C1343      C1344   1.407       .  A
C1343      S1347   1.798       .  S
C1344      C1345   1.394       .  A
C1345      C1346   1.387       .  A
C1345      H1352   1.085       .  S
C1346      S1348   1.799       .  S
S1347      H1350   1.404       .  S
S1348      H1349   1.405       .  S
C1353      C1354   1.403       .  A
C1353      C1358   1.410       .  A
C1354      C1355   1.389       .  A
C1354      H1363   1.083       .  S
C1355      C1356   1.408       .  A
C1355      S1359   1.806       .  S
C1356      C1357   1.403       .  A
C1357      C1358   1.389       .  A
C1357      H1364   1.084       .  S
C1358      S1360   1.800       .  S
S1359      H1362   1.405       .  S
S1360      H1361   1.407       .  S
C1365      C1366   1.404       .  A
C1365      C1370   1.418       .  A
C1366      C1367   1.412       .  A
C1366      H1375   1.077       .  S
C1367      C1368   1.418       .  A
C1367      S1371   1.799       .  S
C1368      C1369   1.407       .  A
C1369      C1370   1.415       .  A
C1369      H1376   1.083   1_455  S
C1370      S1372   1.799       .  S
S1371      H1374   1.406       .  S
S1372      H1373   1.406       .  S
C1377      C1378   1.409       .  A
C1377      C1382   1.420       .  A
C1378      C1379   1.397       .  A
C1378      H1387   1.083       .  S
C1379      C1380   1.408       .  A
C1379      S1383   1.804       .  S
C1380      C1381   1.399       .  A
C1381      C1382   1.403       .  A
C1381      H1388   1.075       .  S
C1382      S1384   1.809       .  S
S1383      H1386   1.408       .  S
S1384      H1385   1.406       .  S
C1389      C1390   1.401       .  A
C1390      C1391   1.404       .  A
C1390      H1399   1.084       .  S
C1391      C1392   1.417       .  A
C1391      S1395   1.798       .  S
C1393      C1394   1.393       .  A
C1393      H1400   1.082   1_554  S
C1394      S1396   1.808       .  S
S1395      H1398   1.401       .  S
S1396      H1397   1.406   1_554  S
C1401      C1402   1.410   1_455  A
C1401      C1406   1.427       .  A
C1402      C1403   1.413       .  A
C1402      H1411   1.083       .  S
C1405      C1406   1.412       .  A
C1405      H1412   1.084       .  S
C1406      S1408   1.804       .  S
S1407      H1410   1.407   1_655  S
S1408      H1409   1.405       .  S
C1413      C1414   1.397       .  A
C1413      C1418   1.407       .  A
C1414      C1415   1.403       .  A
C1414      H1423   1.083       .  S
C1415      C1416   1.424       .  A
C1415      S1419   1.809       .  S
C1416      C1417   1.405       .  A
C1417      C1418   1.392       .  A
C1417      H1424   1.084       .  S
C1418      S1420   1.802       .  S
S1419      H1422   1.407       .  S
S1420      H1421   1.407       .  S
C1425      C1426   1.395       .  A
C1425      C1430   1.409       .  A
C1426      C1427   1.397       .  A
C1426      H1435   1.084       .  S
C1427      C1428   1.423       .  A
C1427      S1431   1.803       .  S
C1428      C1429   1.404       .  A
C1429      C1430   1.395       .  A
C1429      H1436   1.084       .  S
C1430      S1432   1.802       .  S
S1431      H1434   1.408       .  S
S1432      H1433   1.406       .  S
C1437      C1438   1.409       .  A
C1437      C1442   1.419   1_565  A
C1438      C1439   1.410   1_565  A
C1438      H1447   1.082   1_455  S
C1439      C1440   1.419       .  A
C1439      S1443   1.804   1_545  S
C1440      C1441   1.411       .  A
C1441      C1442   1.412       .  A
C1441      H1448   1.083       .  S
C1442      S1444   1.803       .  S
S1443      H1446   1.407   1_565  S
S1444      H1445   1.407   1_445  S
C1449      C1450   1.400       .  A
C1449      C1454   1.418       .  A
C1450      C1451   1.406       .  A
C1450      H1459   1.076       .  S
C1451      C1452   1.416       .  A
C1451      S1455   1.796       .  S
C1452      C1453   1.408       .  A
C1453      C1454   1.416       .  A
C1453      H1460   1.083       .  S
C1454      S1456   1.800       .  S
S1455      H1458   1.406   1_455  S
S1456      H1457   1.406   1_455  S
C1461      C1462   1.399       .  A
C1461      C1466   1.413       .  A
C1462      C1463   1.398       .  A
C1462      H1471   1.083       .  S
C1463      C1464   1.417       .  A
C1463      S1467   1.800       .  S
C1464      C1465   1.402       .  A
C1465      C1466   1.396       .  A
C1465      H1472   1.080       .  S
C1466      S1468   1.810       .  S
S1467      H1470   1.408       .  S
S1468      H1469   1.406   1_455  S
C1473      C1474   1.406       .  A
C1473      C1478   1.421       .  A
C1474      C1475   1.399       .  A
C1474      H1483   1.084       .  S
C1475      C1476   1.416       .  A
C1475      S1479   1.804       .  S
C1476      C1477   1.397       .  A
C1477      C1478   1.399       .  A
C1477      H1484   1.082       .  S
C1478      S1480   1.803       .  S
S1479      H1482   1.408       .  S
S1480      H1481   1.406       .  S
C1485      C1486   1.402       .  A
C1485      C1490   1.410       .  A
C1486      C1487   1.398       .  A
C1486      H1495   1.082       .  S
C1487      C1488   1.411       .  A
C1487      S1491   1.805       .  S
C1488      C1489   1.395       .  A
C1489      C1490   1.384       .  A
C1489      H1496   1.085       .  S
C1490      S1492   1.798       .  S
S1491      H1494   1.402       .  S
S1492      H1493   1.407       .  S
C1497      C1498   1.401       .  A
C1497      C1502   1.412       .  A
C1498      C1499   1.387       .  A
C1498      H1507   1.085       .  S
C1499      C1500   1.408       .  A
C1499      S1503   1.803       .  S
C1500      C1501   1.400       .  A
C1501      C1502   1.397       .  A
C1501      H1508   1.080       .  S
C1502      S1504   1.802       .  S
S1503      H1506   1.406       .  S
S1504      H1505   1.405       .  S
C1509      C1510   1.409       .  A
C1509      C1514   1.415       .  A
C1510      C1511   1.410       .  A
C1510      H1519   1.084       .  S
C1511      C1512   1.415       .  A
C1511      S1515   1.803       .  S
C1512      C1513   1.411       .  A
C1513      C1514   1.417       .  A
C1513      H1520   1.084       .  S
C1514      S1516   1.801       .  S
S1515      H1518   1.406       .  S
S1516      H1517   1.405       .  S
C1521      C1526   1.411       .  A
C1522      H1531   1.084       .  S
C1523      C1524   1.422       .  A
C1524      C1525   1.407       .  A
C1525      C1526   1.402       .  A
C1525      H1532   1.083       .  S
C1526      S1528   1.804       .  S
S1527      H1530   1.408       .  S
S1528      H1529   1.405       .  S
C1533      C1534   1.395       .  A
C1533      C1538   1.410       .  A
C1534      C1535   1.396       .  A
C1534      H1543   1.081       .  S
C1535      C1536   1.422       .  A
C1535      S1539   1.799       .  S
C1536      C1537   1.406       .  A
C1537      C1538   1.394       .  A
C1537      H1544   1.084       .  S
C1538      S1540   1.805       .  S
S1539      H1542   1.407       .  S
S1540      H1541   1.407       .  S
C1545      C1546   1.411       .  A
C1545      C1550   1.427       .  A
C1546      C1547   1.417       .  A
C1546      H1555   1.083       .  S
C1547      C1548   1.425       .  A
C1547      S1551   1.802       .  S
C1548      C1549   1.409       .  A
C1549      C1550   1.416       .  A
C1549      H1556   1.083       .  S
C1550      S1552   1.801       .  S
S1551      H1554   1.408       .  S
S1552      H1553   1.404       .  S
C1557      C1558   1.406       .  A
C1557      C1562   1.428       .  A
C1558      C1559   1.398       .  A
C1558      H1567   1.084       .  S
C1559      C1560   1.407       .  A
C1559      S1563   1.802       .  S
C1560      C1561   1.388       .  A
C1561      C1562   1.390       .  A
C1561      H1568   1.084       .  S
C1562      S1564   1.811       .  S
S1563      H1566   1.405       .  S
S1564      H1565   1.407       .  S
C1569      C1570   1.411       .  A
C1569      C1574   1.413       .  A
C1570      C1571   1.389       .  A
C1570      H1579   1.084       .  S
C1571      C1572   1.404       .  A
C1571      S1575   1.802       .  S
C1572      C1573   1.405       .  A
C1573      C1574   1.399       .  A
C1573      H1580   1.082       .  S
C1574      S1576   1.806       .  S
S1575      H1578   1.407       .  S
S1576      H1577   1.407       .  S
C1581      C1586   1.422   1_565  A
C1582      C1583   1.412   1_564  A
C1582      H1591   1.083   1_554  S
C1583      S1587   1.804       .  S
C1584      C1585   1.409       .  A
C1585      C1586   1.412       .  A
C1585      H1592   1.081       .  S
C1586      S1588   1.803       .  S
S1587      H1590   1.407       .  S
S1588      H1589   1.407       .  S
C1593      C1594   1.410       .  A
C1593      C1598   1.416       .  A
C1594      C1595   1.412       .  A
C1594      H1603   1.084       .  S
C1595      C1596   1.414       .  A
C1595      S1599   1.803       .  S
C1596      C1597   1.412       .  A
C1597      C1598   1.417       .  A
C1597      H1604   1.084       .  S
C1598      S1600   1.801       .  S
S1599      H1602   1.406       .  S
S1600      H1601   1.404       .  S
C1605      C1606   1.405       .  A
C1606      C1607   1.394       .  A
C1606      H1615   1.084       .  S
C1607      S1611   1.800       .  S
C1608      C1609   1.409       .  A
C1609      C1610   1.402       .  A
C1609      H1616   1.083       .  S
C1610      S1612   1.801       .  S
S1611      H1614   1.404       .  S
S1612      H1613   1.408       .  S
C1617      C1618   1.400       .  A
C1617      C1622   1.419       .  A
C1618      C1619   1.396       .  A
C1618      H1627   1.084       .  S
C1619      C1620   1.416       .  A
C1619      S1623   1.800       .  S
C1620      C1621   1.398       .  A
C1621      C1622   1.392       .  A
C1621      H1628   1.084       .  S
C1622      S1624   1.805       .  S
S1623      H1626   1.408       .  S
S1624      H1625   1.402       .  S
C1629      C1630   1.400       .  A
C1629      C1634   1.412       .  A
C1630      C1631   1.386       .  A
C1630      H1639   1.082       .  S
C1631      C1632   1.408       .  A
C1631      S1635   1.796       .  S
C1632      C1633   1.403       .  A
C1633      C1634   1.392       .  A
C1633      H1640   1.084       .  S
C1634      S1636   1.803       .  S
S1635      H1638   1.407       .  S
S1636      H1637   1.408       .  S
C1641      C1642   1.399       .  A
C1641      C1646   1.411       .  A
C1642      C1643   1.386       .  A
C1642      H1651   1.081       .  S
C1643      C1644   1.410       .  A
C1643      S1647   1.800       .  S
C1644      C1645   1.401       .  A
C1645      C1646   1.390       .  A
C1645      H1652   1.084       .  S
C1646      S1648   1.800       .  S
S1647      H1650   1.408       .  S
S1648      H1649   1.407       .  S
C1653      C1654   1.408       .  A
C1653      C1658   1.421       .  A
C1654      C1655   1.396       .  A
C1654      H1663   1.083       .  S
C1655      C1656   1.410       .  A
C1655      S1659   1.804       .  S
C1656      C1657   1.400       .  A
C1657      C1658   1.400       .  A
C1657      H1664   1.081       .  S
C1658      S1660   1.801       .  S
S1659      H1662   1.407       .  S
S1660      H1661   1.408       .  S
C1665      C1670   1.414       .  A
C1666      C1667   1.398       .  A
C1666      H1675   1.084       .  S
C1667      C1668   1.417       .  A
C1667      S1671   1.803       .  S
C1669      C1670   1.393       .  A
C1669      H1676   1.082       .  S
C1670      S1672   1.805       .  S
S1671      H1674   1.408       .  S
S1672      H1673   1.407       .  S
C1677      C1678   1.408   1_545  A
C1677      C1682   1.409       .  A
C1678      C1679   1.409       .  A
C1678      H1687   1.084       .  S
C1679      C1680   1.413       .  A
C1679      S1683   1.799       .  S
C1680      C1681   1.410   1_565  A
C1681      C1682   1.417       .  A
C1681      H1688   1.076       .  S
C1682      S1684   1.802       .  S
S1683      H1686   1.407   1_565  S
S1684      H1685   1.407       .  S
C1689      C1690   1.405       .  A
C1689      C1694   1.410       .  A
C1690      C1691   1.398       .  A
C1690      H1699   1.083       .  S
C1691      C1692   1.411       .  A
C1691      S1695   1.808       .  S
C1692      C1693   1.407       .  A
C1693      C1694   1.396       .  A
C1693      H1700   1.084       .  S
C1694      S1696   1.802   1_565  S
S1695      H1698   1.407       .  S
S1696      H1697   1.402       .  S
C1701      C1702   1.410       .  A
C1701      C1706   1.414       .  A
C1702      C1703   1.395       .  A
C1702      H1711   1.081       .  S
C1703      C1704   1.408       .  A
C1703      S1707   1.809       .  S
C1704      C1705   1.402       .  A
C1705      C1706   1.390       .  A
C1705      H1712   1.083       .  S
C1706      S1708   1.808       .  S
S1707      H1710   1.407   1_565  S
S1708      H1709   1.407       .  S
C1713      C1714   1.400       .  A
C1713      C1718   1.414       .  A
C1714      C1715   1.384       .  A
C1714      H1723   1.084       .  S
C1715      C1716   1.405       .  A
C1715      S1719   1.794       .  S
C1716      C1717   1.401       .  A
C1717      C1718   1.397       .  A
C1717      H1724   1.083       .  S
C1718      S1720   1.808       .  S
S1719      H1722   1.406       .  S
S1720      H1721   1.407   1_455  S
C1725      C1726   1.400       .  A
C1725      C1730   1.413       .  A
C1726      C1727   1.406       .  A
C1726      H1735   1.082       .  S
C1727      C1728   1.425       .  A
C1727      S1731   1.810       .  S
C1728      C1729   1.406       .  A
C1729      C1730   1.397       .  A
C1729      H1736   1.083       .  S
C1730      S1732   1.805       .  S
S1731      H1734   1.406       .  S
S1732      H1733   1.407       .  S
C1737      C1738   1.409       .  A
C1737      C1742   1.425       .  A
C1738      C1739   1.411       .  A
C1738      H1747   1.083       .  S
C1739      C1740   1.422       .  A
C1739      S1743   1.803       .  S
C1740      C1741   1.409       .  A
C1741      C1742   1.412       .  A
C1741      H1748   1.083   1_545  S
C1742      S1744   1.805       .  S
S1743      H1746   1.407   1_545  S
S1744      H1745   1.407       .  S
C1749      C1750   1.403       .  A
C1749      C1754   1.409       .  A
C1750      C1751   1.398       .  A
C1750      H1759   1.083       .  S
C1751      C1752   1.413       .  A
C1751      S1755   1.809       .  S
C1752      C1753   1.403       .  A
C1753      C1754   1.393       .  A
C1753      H1760   1.082       .  S
C1754      S1756   1.806       .  S
S1755      H1758   1.407       .  S
S1756      H1757   1.407       .  S
C1761      C1762   1.405       .  A
C1761      C1766   1.415       .  A
C1762      C1763   1.400       .  A
C1762      H1771   1.083       .  S
C1763      C1764   1.410       .  A
C1763      S1767   1.807       .  S
C1764      C1765   1.398       .  A
C1765      C1766   1.389       .  A
C1765      H1772   1.085       .  S
C1766      S1768   1.798       .  S
S1767      H1770   1.406       .  S
S1768      H1769   1.406       .  S
C1773      C1774   1.396       .  A
C1773      C1778   1.410       .  A
C1774      C1775   1.389       .  A
C1774      H1783   1.085       .  S
C1775      C1776   1.414       .  A
C1775      S1779   1.807       .  S
C1776      C1777   1.402       .  A
C1777      C1778   1.404       .  A
C1777      H1784   1.083       .  S
C1778      S1780   1.805       .  S
S1779      H1782   1.397       .  S
S1780      H1781   1.407       .  S
C1785      C1786   1.404       .  A
C1786      C1787   1.392       .  A
C1786      H1795   1.083       .  S
C1787      C1788   1.413       .  A
C1787      S1791   1.806       .  S
C1788      C1789   1.398       .  A
C1790      S1792   1.807   1_554  S
S1791      H1794   1.401       .  S
S1792      H1793   1.407   1_556  S
C1797      C1798   1.406       .  A
C1797      C1802   1.418   1_445  A
C1798      C1799   1.416       .  A
C1798      H1807   1.083       .  S
C1799      C1800   1.423   1_455  A
C1799      S1803   1.809       .  S
C1800      C1801   1.411   1_545  A
C1801      C1802   1.411       .  A
C1801      H1808   1.083       .  S
S1803      H1806   1.407       .  S
S1804      H1805   1.407   1_655  S
C1809      C1810   1.406   1_545  A
C1809      C1814   1.418       .  A
C1810      C1811   1.416       .  A
C1810      H1819   1.081       .  S
C1811      C1812   1.419   1_565  A
C1811      S1815   1.798       .  S
C1812      C1813   1.405       .  A
C1813      C1814   1.415       .  A
C1813      H1820   1.083       .  S
C1814      S1816   1.803       .  S
S1815      H1818   1.406       .  S
S1816      H1817   1.407       .  S
C1821      C1822   1.408       .  A
C1822      C1823   1.396       .  A
C1822      H1831   1.084       .  S
C1823      S1827   1.798       .  S
C1824      C1825   1.408       .  A
C1825      C1826   1.394       .  A
C1825      H1832   1.085       .  S
C1826      S1828   1.800       .  S
S1827      H1830   1.398       .  S
S1828      H1829   1.405       .  S
C1833      C1834   1.405       .  A
C1833      C1838   1.420       .  A
C1834      C1835   1.392       .  A
C1834      H1843   1.084       .  S
C1835      C1836   1.408       .  A
C1835      S1839   1.799       .  S
C1836      C1837   1.400       .  A
C1837      C1838   1.401       .  A
C1837      H1844   1.084       .  S
C1838      S1840   1.801       .  S
S1839      H1842   1.407       .  S
S1840      H1841   1.408   1_545  S
C1845      C1846   1.398       .  A
C1845      C1850   1.401       .  A
C1846      C1847   1.401       .  A
C1846      H1855   1.083       .  S
C1847      C1848   1.422       .  A
C1847      S1851   1.811       .  S
C1848      C1849   1.410       .  A
C1849      C1850   1.396       .  A
C1849      H1856   1.082       .  S
C1850      S1852   1.805       .  S
S1851      H1854   1.406       .  S
S1852      H1853   1.407       .  S
