geometry optimzed in LAMMPS
_audit_creation_date              2020-12-01 
_audit_creation_method            'lammps2cif' 
_symmetry_space_group_name_H-M    'P1' 
_symmetry_Int_Tables_number       1 
_symmetry_cell_setting            triclinic 
loop_ 
_symmetry_equiv_pos_as_xyz 
  x,y,z 
_cell_length_a                    37.97387193 
_cell_length_b                    37.93665269625636 
_cell_length_c                    101.29322182529582 
_cell_angle_alpha                 89.62441736926772 
_cell_angle_beta                  90.18739161003093 
_cell_angle_gamma                 120.0273085995395 
loop_ 
_atom_site_label 
_atom_site_type_symbol 
_atom_site_fract_x 
_atom_site_fract_y 
_atom_site_fract_z 
_atom_site_charge 
Zr1        Zr  0.89718976  0.17949630  0.56205402     2.17500
O2          O  0.88562121  0.13941435  0.54213386    -0.51400
O3          O  0.96519185  0.19181883  0.56642379    -0.74600
O4          O  0.93439300  0.22378915  0.54361760    -0.81400
O5          O  0.84132069  0.08558184  0.58328446    -0.83200
O6          O  0.93063973  0.28180129  0.54434273    -0.78800
O7          O  0.88205106  0.10948954  0.56517901    -0.90400
O8          O  0.98787606  0.22991354  0.58504750    -0.76400
O9          O  0.93209217  0.24769502  0.56995638    -0.85900
O10         O  0.90062792  0.17473300  0.58541665    -0.85600
O11         O  0.85727672  0.20921952  0.55497086    -0.72300
O12         O  0.82788152  0.14130725  0.56930936    -0.84500
Zr13       Zr  0.82613430  0.23587279  0.59459262     2.26400
Zr14       Zr  0.89140025  0.27691374  0.56370265     2.06300
Zr15       Zr  0.83162251  0.13853575  0.59277747     2.10000
Zr16       Zr  0.93540948  0.24299958  0.59319594     1.78800
O17         O  0.76187061  0.08217160  0.59414919    -0.93300
O18         O  0.99458431  0.31062117  0.59037082    -0.41100
O19         O  0.86687691  0.20665164  0.60075945    -0.77700
O20         O  0.89615194  0.27460931  0.58731885    -0.96400
O21         O  0.82256700  0.24031007  0.57118445    -0.89700
O22         O  0.79056668  0.16754784  0.58661004    -0.92500
C23         C  0.99219193  0.21099831  0.57529411     1.01200
C24         C  0.86061098  0.08144040  0.57362246     1.14100
C25         C  0.94256172  0.25884993  0.53916022     1.04900
O26         O  0.95374567  0.34270461  0.56240209    -0.94700
O27         O  0.87934665  0.32945107  0.57205110    -0.90400
O28         O  0.84580917  0.30740161  0.59157887    -0.83600
C29         C  0.86310584  0.33426430  0.58244086     1.11600
O30         O  0.77336584  0.13252791  0.54290754    -0.96700
Zr31       Zr  0.78892541  0.17247486  0.56307448     1.88900
O32         O  0.75625006  0.21927156  0.58995641    -0.73300
O33         O  0.85971563  0.29370245  0.54566115    -0.52600
O34         O  0.77470695  0.20446714  0.54442084    -0.97300
O35         O  0.72942901  0.10467640  0.56531139    -0.54500
O36         O  0.73642794  0.18525365  0.57053681    -0.73800
C37         C  0.73066032  0.20214665  0.58052933     0.98500
O38         O  0.81143354  0.26413589  0.61398396    -0.62700
O39         O  0.84952642  0.10432052  0.60973348    -0.57500
O40         O  0.81688114  0.20623632  0.61687806    -0.94100
O41         O  0.82085476  0.14853017  0.61555889    -0.92600
O42         O  0.94812981  0.21279823  0.61261434    -0.92900
O43         O  0.95463082  0.28332080  0.61329790    -0.91700
C44         C  0.81683266  0.17508977  0.62206423     1.17400
H45         H  0.91460893  0.16035346  0.58796175     0.33300
H46         H  0.90966827  0.30171586  0.59095501     0.44100
H47         H  0.76374314  0.15251665  0.59044413     0.37700
H48         H  0.85661616  0.21005247  0.54544236     0.34200
H49         H  0.01722394  0.30891061  0.59461200     0.25900
H50         H  0.88120092  0.32074797  0.54249759     0.31900
H51         H  0.77340670  0.22776846  0.54822004     0.37800
H52         H  0.92531176  0.18435633  0.61283969     0.32200
H53         H  0.82976993  0.07492482  0.60873170     0.31100
H54         H  0.75966502  0.06345346  0.58701358     0.32800
H55         H  0.70643975  0.10747381  0.56193700     0.31800
H56         H  0.93511043  0.29332424  0.61395139     0.35800
H57         H  0.83753266  0.28845191  0.61642874     0.28500
H58         H  0.91306629  0.14708035  0.53882558     0.32700
H59         H  0.74618236  0.12720713  0.54003609     0.35600
H60         H  0.87594610  0.10756943  0.60692586     0.28200
H61         H  0.79397369  0.27496291  0.61081457     0.41100
H62         H  0.96072969  0.35157844  0.57167919     0.31100
H63         H  0.00080405  0.31288570  0.58081573     0.38700
H64         H  0.72429754  0.10017592  0.57490664     0.30600
H65         H  0.85657199  0.27482963  0.53845904     0.30700
H66         H  0.87462680  0.15091133  0.53559104     0.30900
Zr67       Zr  0.15216619  0.30878458  0.44142105     2.17500
O68         O  0.16404451  0.28094104  0.46165873    -0.51400
O69         O  0.08429865  0.25236190  0.43714639    -0.74600
O70         O  0.11504817  0.31413919  0.45984944    -0.81400
O71         O  0.21197026  0.27508283  0.42064023    -0.83200
O72         O  0.11197745  0.37238847  0.45809170    -0.78800
O73         O  0.17043618  0.25601202  0.43857549    -0.90400
O74         O  0.06043959  0.26865836  0.41886441    -0.76400
O75         O  0.11514857  0.33970740  0.43310906    -0.85900
O76         O  0.14968950  0.30115403  0.41812183    -0.85600
O77         O  0.18890022  0.37875868  0.44828116    -0.72300
O78         O  0.22172846  0.34293706  0.43446141    -0.84500
Zr79       Zr  0.22015843  0.43776714  0.40856707     2.26400
Zr80       Zr  0.15246141  0.40975037  0.43913281     2.06300
Zr81       Zr  0.21895114  0.33675032  0.41105429     2.10000
Zr82       Zr  0.11325723  0.33258547  0.40990751     1.78800
O83         O  0.28896008  0.35091897  0.41094206    -0.93300
O84         O  0.05126299  0.33665872  0.41093849    -0.41100
O85         O  0.18200063  0.36748753  0.40256375    -0.77700
O86         O  0.14966914  0.40360291  0.41554436    -0.96400
O87         O  0.22183231  0.44501461  0.43198038    -0.89700
O88         O  0.25718470  0.40693745  0.41702788    -0.92500
C89         C  0.05667439  0.24510133  0.42852750     1.01200
C90         C  0.19305009  0.25093429  0.43027673     1.14100
C91         C  0.10345178  0.33876142  0.46377614     1.04900
O92         O  0.08759317  0.40818639  0.43839087    -0.94700
O93         O  0.16277635  0.47398748  0.43066498    -0.90400
O94         O  0.19988103  0.48905449  0.41180942    -0.83600
C95         C  0.18023582  0.49659028  0.42057537     1.11600
O96         O  0.27460284  0.38872653  0.46047438    -0.96700
Zr97       Zr  0.25750646  0.41316821  0.44049338     1.88900
O98         O  0.29036715  0.49132882  0.41278316    -0.73300
O99         O  0.17541196  0.45590645  0.45786964    -0.52600
O100        O  0.26478176  0.45607472  0.45929034    -0.97300
O101        O  0.32002916  0.41012460  0.43884958    -0.54500
O102        O  0.30826189  0.47974382  0.43306979    -0.73800
C103        C  0.31496124  0.50123771  0.42260632     0.98500
O104        O  0.23072657  0.48043071  0.38914281    -0.62700
O105        O  0.20056623  0.28576882  0.39384233    -0.57500
O106        O  0.23069064  0.41796607  0.38644502    -0.94100
O107        O  0.23509530  0.36058771  0.38866064    -0.92600
O108        O  0.10264322  0.28450996  0.39245156    -0.92900
O109        O  0.09731800  0.35321001  0.38897995    -0.91700
C110        C  0.23496330  0.38883394  0.38173215     1.17400
H111        H  0.13660650  0.27280928  0.41566120     0.33300
H112        H  0.13555503  0.41640502  0.41168702     0.44100
H113        H  0.28423636  0.41947400  0.41333131     0.37700
H114        H  0.18920914  0.38031548  0.45780152     0.34200
H115        H  0.03040427  0.31187483  0.40639392     0.25900
H116        H  0.19787848  0.48189281  0.45438269     0.31900
H117        H  0.26732841  0.48123447  0.45538286     0.37800
H118        H  0.12975831  0.29528075  0.38833556     0.32200
H119        H  0.22119746  0.27713673  0.39436712     0.31100
H120        H  0.28987688  0.33380369  0.40376721     0.32800
H121        H  0.34152998  0.43622646  0.44253788     0.31800
H122        H  0.12406581  0.37409284  0.38544840     0.35800
H123        H  0.20418754  0.47847135  0.38727035     0.28500
H124        H  0.13674060  0.26084484  0.46503692     0.32700
H125        H  0.29988998  0.41218494  0.46389565     0.35600
H126        H  0.17498298  0.26179344  0.39688460     0.28200
H127        H  0.24877844  0.50884170  0.39204123     0.41100
H128        H  0.08105366  0.40710257  0.42888418     0.31100
H129        H  0.04312296  0.33189195  0.42034899     0.38700
H130        H  0.32632556  0.41218466  0.42931224     0.30600
H131        H  0.15297690  0.46154431  0.45946221     0.30700
H132        H  0.17486599  0.30351377  0.46809792     0.30900
Zr133      Zr  0.16127525  0.90982694  0.44106630     2.17500
O134        O  0.11839979  0.89119563  0.46067617    -0.51400
O135        O  0.17463470  0.97870616  0.43742239    -0.74600
O136        O  0.20272950  0.94784175  0.45972373    -0.81400
O137        O  0.07258380  0.86107271  0.41843708    -0.83200
O138        O  0.25983347  0.94249769  0.45976255    -0.78800
O139        O  0.09326130  0.89853259  0.43721400    -0.90400
O140        O  0.21993984  0.00562704  0.42050835    -0.76400
O141        O  0.23069920  0.94529752  0.43440015    -0.85900
O142        O  0.16118951  0.91795982  0.41773269    -0.85600
O143        O  0.18849638  0.86731433  0.44787664    -0.72300
O144        O  0.12392408  0.84185830  0.43253964    -0.84500
Zr145      Zr  0.22245843  0.84379281  0.40827459     2.26400
Zr146      Zr  0.25776635  0.90299815  0.44063473     2.06300
Zr147      Zr  0.12541454  0.85050910  0.40923795     2.10000
Zr148      Zr  0.23074243  0.95302210  0.41118740     1.78800
O149        O  0.06820368  0.78164200  0.40692621    -0.93300
O150        O  0.29912167  0.01106888  0.41372752    -0.41100
O151        O  0.19474339  0.88621398  0.40232173    -0.77700
O152        O  0.26024424  0.91195134  0.41709200    -0.96400
O153        O  0.22231147  0.83584510  0.43163165    -0.89700
O154        O  0.15268350  0.80756435  0.41486067    -0.92500
C155        C  0.19785832  0.00797288  0.42963081     1.01200
C156        C  0.06689534  0.87899355  0.42820215     1.14100
C157        C  0.23707845  0.95541591  0.46454424     1.04900
O158        O  0.32353302  0.96519956  0.44206739    -0.94700
O159        O  0.31017690  0.88941393  0.43317638    -0.90400
O160        O  0.29126176  0.85765143  0.41331639    -0.83600
C161        C  0.31629727  0.87338051  0.42296690     1.11600
O162        O  0.11152306  0.78276549  0.45818863    -0.96700
Zr163      Zr  0.15304149  0.80048153  0.43826796     1.88900
O164        O  0.20412571  0.77255916  0.41099796    -0.73300
O165        O  0.27094648  0.87041939  0.45929397    -0.52600
O166        O  0.18115235  0.77887027  0.45615340    -0.97300
O167        O  0.08427563  0.74414594  0.43444831    -0.54500
O168        O  0.16430670  0.74780759  0.42925652    -0.73800
C169        C  0.18342164  0.74417622  0.41941751     0.98500
O170        O  0.25957752  0.84336403  0.38870258    -0.62700
O171        O  0.09358255  0.87031850  0.39200045    -0.57500
O172        O  0.19419749  0.83363559  0.38587149    -0.94100
O173        O  0.13864910  0.84144991  0.38674628    -0.92600
O174        O  0.20312136  0.97340485  0.39287885    -0.92900
O175        O  0.27049637  0.96815673  0.39100560    -0.91700
C176        C  0.16458249  0.83581112  0.38048513     1.17400
H177        H  0.14784826  0.93295738  0.41517491     0.33300
H178        H  0.28800850  0.92545842  0.41398741     0.44100
H179        H  0.13807492  0.78172690  0.41040837     0.37700
H180        H  0.18741971  0.86479280  0.45738658     0.34200
H181        H  0.29831647  0.03378717  0.40913596     0.25900
H182        H  0.29747214  0.89165269  0.46282198     0.31900
H183        H  0.20698670  0.78231901  0.45262837     0.37800
H184        H  0.18650147  0.94803099  0.38784935     0.32200
H185        H  0.06389373  0.85219435  0.39312040     0.31100
H186        H  0.05804637  0.78079260  0.39785192     0.32800
H187        H  0.08358671  0.72033145  0.43877507     0.31800
H188        H  0.26239308  0.94114399  0.38721710     0.35800
H189        H  0.28445721  0.87052253  0.38838076     0.28500
H190        H  0.12397917  0.91731486  0.46461475     0.32700
H191        H  0.10425980  0.75448362  0.46044647     0.35600
H192        H  0.09878558  0.89767168  0.39454399     0.28200
H193        H  0.26923126  0.82399725  0.39066878     0.41100
H194        H  0.33117702  0.97418625  0.43280260     0.31100
H195        H  0.30127622  0.01810822  0.42320162     0.38700
H196        H  0.08301338  0.73820817  0.42490979     0.30600
H197        H  0.25093468  0.86724834  0.46611313     0.30700
H198        H  0.13036186  0.87993524  0.46694203     0.30900
Zr199      Zr  0.29345423  0.16706458  0.56252851     2.17500
O200        O  0.26470813  0.18234269  0.54322355    -0.51400
O201        O  0.23811679  0.09778412  0.56653945    -0.74600
O202        O  0.29752044  0.13258694  0.54320965    -0.81400
O203        O  0.25826921  0.22204534  0.58474083    -0.83200
O204        O  0.35724493  0.13215885  0.54374655    -0.78800
O205        O  0.23868814  0.18127164  0.56667367    -0.90400
O206        O  0.25564974  0.07273789  0.58425772    -0.76400
O207        O  0.32762700  0.13137007  0.56889600    -0.85900
O208        O  0.28691003  0.15965550  0.58583373    -0.85600
O209        O  0.36290839  0.20861798  0.55531000    -0.72300
O210        O  0.32513868  0.23523316  0.57083141    -0.84500
Zr211      Zr  0.42236829  0.23367024  0.59467500     2.26400
Zr212      Zr  0.39698747  0.17312944  0.56246277     2.06300
Zr213      Zr  0.31929341  0.22732794  0.59417861     2.10000
Zr214      Zr  0.32156132  0.12440403  0.59211729     1.78800
O215        O  0.33058406  0.29569523  0.59762951    -0.93300
O216        O  0.32971343  0.06637715  0.58670968    -0.41100
O217        O  0.35283735  0.19138566  0.60094913    -0.77700
O218        O  0.39167486  0.16534474  0.58603378    -0.96400
O219        O  0.42928843  0.24061915  0.57123297    -0.89700
O220        O  0.38882080  0.26974518  0.58800327    -0.92500
C221        C  0.23120938  0.06966351  0.57499579     1.01200
C222        C  0.23362657  0.20309433  0.57526242     1.14100
C223        C  0.32260948  0.12255043  0.53859726     1.04900
O224        O  0.40501678  0.11344611  0.56109146    -0.94700
O225        O  0.46318196  0.18647754  0.57005067    -0.90400
O226        O  0.47765848  0.22134545  0.58935292    -0.83600
C227        C  0.48613152  0.20414976  0.58001534     1.11600
O228        O  0.36588197  0.29053301  0.54526092    -0.96700
Zr229      Zr  0.39502646  0.27576324  0.56454761     1.88900
O230        O  0.47398665  0.30521443  0.59192727    -0.73300
O231        O  0.44063101  0.20532458  0.54339562    -0.52600
O232        O  0.44125838  0.29553735  0.54578188    -0.97300
O233        O  0.38635396  0.33446877  0.56813096    -0.54500
O234        O  0.45984735  0.32840208  0.57303528    -0.73800
C235        C  0.48207869  0.33281183  0.58314193     0.98500
O236        O  0.45981059  0.23167904  0.61404540    -0.62700
O237        O  0.26608935  0.19970096  0.61094992    -0.57500
O238        O  0.40598454  0.24432501  0.61721925    -0.94100
O239        O  0.34412457  0.24013996  0.61647460    -0.92600
O240        O  0.27740871  0.10418378  0.61137138    -0.92900
O241        O  0.34903217  0.10740917  0.61128684    -0.91700
C242        C  0.37535094  0.24426622  0.62266649     1.17400
H243        H  0.25873287  0.14492626  0.58851900     0.33300
H244        H  0.40610565  0.15198271  0.58916451     0.44100
H245        H  0.40031848  0.29581127  0.59231651     0.37700
H246        H  0.36369194  0.21079303  0.54579318     0.34200
H247        H  0.31008852  0.04406797  0.59249630     0.25900
H248        H  0.44599968  0.18419638  0.53985269     0.31900
H249        H  0.46457437  0.29304359  0.54899124     0.37800
H250        H  0.28215736  0.13018191  0.61517972     0.32200
H251        H  0.26090734  0.22217264  0.61302085     0.31100
H252        H  0.30777886  0.29182579  0.60333055     0.32800
H253        H  0.41202309  0.35816481  0.56499575     0.31800
H254        H  0.36990350  0.13411539  0.61480794     0.35800
H255        H  0.45875031  0.20507174  0.61375118     0.28500
H256        H  0.24419309  0.15560930  0.53961979     0.32700
H257        H  0.38609115  0.31858366  0.54249144     0.35600
H258        H  0.24114077  0.17919419  0.60639657     0.28200
H259        H  0.48866780  0.25230841  0.61243841     0.41100
H260        H  0.39909506  0.10165334  0.57010652     0.31100
H261        H  0.31822438  0.05822214  0.57772152     0.38700
H262        H  0.38697265  0.33785373  0.57781869     0.30600
H263        H  0.42288584  0.20776734  0.53671076     0.30700
H264        H  0.28682968  0.19392425  0.53658912     0.30900
Zr265      Zr  0.75296503  0.90092165  0.44126579     2.17500
O266        O  0.78087152  0.94155540  0.46115473    -0.51400
O267        O  0.80922094  0.88938277  0.43705831    -0.74600
O268        O  0.74763081  0.85809547  0.45998753    -0.81400
O269        O  0.79035134  0.99231223  0.41880188    -0.83200
O270        O  0.68746710  0.79839522  0.45917080    -0.78800
O271        O  0.80720648  0.97091025  0.43755823    -0.90400
O272        O  0.79304118  0.84873652  0.41902918    -0.76400
O273        O  0.71937720  0.83189168  0.43417792    -0.85900
O274        O  0.76071089  0.90283049  0.41792662    -0.85600
O275        O  0.68339782  0.87231764  0.44820787    -0.72300
O276        O  0.72180556  0.93828283  0.43306483    -0.84500
Zr277      Zr  0.62565837  0.84177238  0.40842351     2.26400
Zr278      Zr  0.64978903  0.80361223  0.44039581     2.06300
Zr279      Zr  0.72822015  0.93841801  0.40968375     2.10000
Zr280      Zr  0.72689171  0.83378975  0.41094551     1.78800
O281        O  0.71478190  0.99466431  0.40787488    -0.93300
O282        O  0.72146925  0.76781455  0.41488111    -0.41100
O283        O  0.69533947  0.86970033  0.40229898    -0.77700
O284        O  0.65634240  0.80349651  0.41680772    -0.96400
O285        O  0.61775969  0.83957419  0.43184058    -0.89700
O286        O  0.65851149  0.91073144  0.41564712    -0.92500
C287        C  0.81686225  0.86939923  0.42847614     1.01200
C288        C  0.81364106  0.99780124  0.42866269     1.14100
C289        C  0.72221260  0.82244798  0.46441777     1.04900
O290        O  0.64103339  0.73556713  0.44089289    -0.94700
O291        O  0.58273087  0.75297131  0.43276320    -0.90400
O292        O  0.57126542  0.77237739  0.41265997    -0.83600
C293        C  0.56120250  0.74721890  0.42235613     1.11600
O294        O  0.67900412  0.95151378  0.45851542    -0.96700
Zr295      Zr  0.65170445  0.90815893  0.43913723     1.88900
O296        O  0.57231276  0.85870048  0.41182537    -0.73300
O297        O  0.60765782  0.79043774  0.45990978    -0.52600
O298        O  0.60677059  0.87689834  0.45800098    -0.97300
O299        O  0.65713426  0.97472780  0.43659806    -0.54500
O300        O  0.58615114  0.89430999  0.43093487    -0.73800
C301        C  0.56369102  0.87662755  0.42090173     0.98500
O302        O  0.58893907  0.80809969  0.38832111    -0.62700
O303        O  0.78057236  0.96915279  0.39267245    -0.57500
O304        O  0.64305833  0.87193168  0.38618902    -0.94100
O305        O  0.70595221  0.92817531  0.38716342    -0.92600
O306        O  0.76989578  0.86221929  0.39153104    -0.92900
O307        O  0.70170101  0.78907441  0.39189068    -0.91700
C308        C  0.67450094  0.90218288  0.38086370     1.17400
H309        H  0.78900366  0.91689958  0.41534966     0.33300
H310        H  0.64212066  0.77593261  0.41352891     0.44100
H311        H  0.64685640  0.92552941  0.41146070     0.37700
H312        H  0.68206043  0.87246746  0.45772522     0.34200
H313        H  0.74494266  0.76926598  0.41014750     0.25900
H314        H  0.58219336  0.78838840  0.45655163     0.31900
H315        H  0.58091762  0.85532975  0.45419267     0.37800
H316        H  0.76848425  0.88694902  0.38933012     0.32200
H317        H  0.78930157  0.99850518  0.39268442     0.31100
H318        H  0.73047714  0.01316442  0.41517778     0.32800
H319        H  0.63196076  0.97159731  0.44060506     0.31800
H320        H  0.67683975  0.78952694  0.38919654     0.35800
H321        H  0.59105906  0.78320913  0.38759003     0.28500
H322        H  0.80249055  0.93603865  0.46417749     0.32700
H323        H  0.65675615  0.95543722  0.46188320     0.35600
H324        H  0.80421636  0.96767908  0.39613876     0.28200
H325        H  0.55988729  0.79824812  0.39019624     0.41100
H326        H  0.65984298  0.73612623  0.43405619     0.31100
H327        H  0.72825087  0.76803420  0.42433633     0.38700
H328        H  0.65385631  0.97770587  0.42703304     0.30600
H329        H  0.59976403  0.76224473  0.46254129     0.30700
H330        H  0.75916308  0.92862943  0.46789307     0.30900
Zr331      Zr  0.88328181  0.76821771  0.56201442     2.17500
O332        O  0.92214498  0.79399868  0.54162508    -0.51400
O333        O  0.87162002  0.82441143  0.56639823    -0.74600
O334        O  0.83876187  0.76369598  0.54402105    -0.81400
O335        O  0.97454084  0.80717464  0.58354968    -0.83200
O336        O  0.77944920  0.70315146  0.54529538    -0.78800
O337        O  0.95244062  0.82364858  0.56490362    -0.90400
O338        O  0.83228014  0.80771157  0.58480448    -0.76400
O339        O  0.81586763  0.73668186  0.57039878    -0.85900
O340        O  0.88941792  0.77604103  0.58538886    -0.85600
O341        O  0.85161656  0.69833615  0.55527124    -0.72300
O342        O  0.92038292  0.73530820  0.56899039    -0.84500
Zr343      Zr  0.82571210  0.63981734  0.59505628     2.26400
Zr344      Zr  0.78453094  0.66682371  0.56441864     2.06300
Zr345      Zr  0.92442474  0.74154367  0.59244620     2.10000
Zr346      Zr  0.82160199  0.74377454  0.59359113     1.78800
O347        O  0.97805809  0.72420317  0.59153713    -0.93300
O348        O  0.75341557  0.73414099  0.59139666    -0.41100
O349        O  0.85685043  0.71018548  0.60084867    -0.77700
O350        O  0.78834887  0.67280299  0.58804256    -0.96400
O351        O  0.81965593  0.63248082  0.57166320    -0.89700
O352        O  0.89354457  0.67137415  0.58658277    -0.92500
C353        C  0.85159092  0.83147171  0.57513433     1.01200
C354        C  0.97933683  0.83073962  0.57377507     1.14100
C355        C  0.80295662  0.73795271  0.53991410     1.04900
O356        O  0.72146858  0.66854760  0.56630503    -0.94700
O357        O  0.73209778  0.60208258  0.57274257    -0.90400
O358        O  0.75458103  0.58702287  0.59159000    -0.83600
C359        C  0.72736859  0.57930032  0.58274206     1.11600
O360        O  0.92298570  0.68731501  0.54209367    -0.96700
Zr361      Zr  0.88694830  0.66474721  0.56310988     1.88900
O362        O  0.84408822  0.58748784  0.59123356    -0.73300
O363        O  0.76320066  0.62073779  0.54567379    -0.52600
O364        O  0.84891461  0.61576206  0.54582255    -0.97300
O365        O  0.95419346  0.67134311  0.56424691    -0.54500
O366        O  0.87673429  0.60075488  0.57151976    -0.73800
C367        C  0.86147430  0.57904970  0.58192074     0.98500
O368        O  0.79421558  0.59826352  0.61468786    -0.62700
O369        O  0.97001421  0.78655981  0.60949488    -0.57500
O370        O  0.85565412  0.65927734  0.61725511    -0.94100
O371        O  0.91086769  0.72266859  0.61552644    -0.92600
O372        O  0.85556597  0.79285684  0.61115612    -0.92900
O373        O  0.78677825  0.72461267  0.61478410    -0.91700
C374        C  0.88544885  0.69160791  0.62228304     1.17400
H375        H  0.90409157  0.80435186  0.58791851     0.33300
H376        H  0.76153248  0.65947856  0.59193114     0.44100
H377        H  0.90849297  0.65928989  0.59031147     0.37700
H378        H  0.85006271  0.69672898  0.54575188     0.34200
H379        H  0.75380403  0.75594085  0.59682807     0.25900
H380        H  0.75839452  0.59442880  0.54933898     0.31900
H381        H  0.86208714  0.59902002  0.54495081     0.37800
H382        H  0.87370449  0.78430840  0.61536030     0.32200
H383        H  0.99793194  0.79530629  0.60640514     0.31100
H384        H  0.00065288  0.74737976  0.58681028     0.32800
H385        H  0.95155261  0.64762328  0.55935565     0.31800
H386        H  0.79834980  0.70958756  0.61938164     0.35800
H387        H  0.76902121  0.59932118  0.61623446     0.28500
H388        H  0.91528212  0.81428158  0.53814404     0.32700
H389        H  0.92773067  0.66518403  0.53916453     0.35600
H390        H  0.96765638  0.81138345  0.60905484     0.28200
H391        H  0.78489251  0.56983975  0.61204460     0.41100
H392        H  0.71315630  0.66188374  0.57565868     0.31100
H393        H  0.75201032  0.74227873  0.58218787     0.38700
H394        H  0.95745641  0.66543214  0.57355551     0.30600
H395        H  0.73574492  0.61591463  0.54342337     0.30700
H396        H  0.90941673  0.77098723  0.53536625     0.30900
Zr397      Zr  0.10026329  0.56193252  0.10727592     2.17500
O398        O  0.12596938  0.60288129  0.12719222    -0.51400
O399        O  0.15658146  0.55010267  0.10351117    -0.74600
O400        O  0.09420605  0.51974516  0.12598147    -0.81400
O401        O  0.13879805  0.65362230  0.08554438    -0.83200
O402        O  0.03164609  0.46265668  0.12606109    -0.78800
O403        O  0.15579507  0.63076177  0.10393792    -0.90400
O404        O  0.14061053  0.51015917  0.08532618    -0.76400
O405        O  0.06612399  0.49295181  0.10027532    -0.85900
O406        O  0.10843496  0.56409501  0.08397462    -0.85600
O407        O  0.03081074  0.53362253  0.11418031    -0.72300
O408        O  0.06971965  0.59997932  0.09932147    -0.84500
Zr409      Zr  0.97254252  0.50386606  0.07475550     2.26400
Zr410      Zr  0.99639198  0.46495031  0.10633188     2.06300
Zr411      Zr  0.07635803  0.60029663  0.07596537     2.10000
Zr412      Zr  0.07405536  0.49499324  0.07709338     1.78800
O413        O  0.06553397  0.65825274  0.07420865    -0.93300
O414        O  0.06672222  0.42852981  0.08180990    -0.41100
O415        O  0.04244672  0.53132244  0.06862974    -0.77700
O416        O  0.00321354  0.46529329  0.08277946    -0.96400
O417        O  0.96469983  0.50151611  0.09809887    -0.89700
O418        O  0.00663861  0.57288547  0.08196526    -0.92500
C419        C  0.16438216  0.53034846  0.09489721     1.01200
C420        C  0.16227242  0.65822297  0.09530219     1.14100
C421        C  0.06703159  0.48586462  0.13097741     1.04900
O422        O  0.99552992  0.40038957  0.10725331    -0.94700
O423        O  0.93062880  0.41241547  0.09835664    -0.90400
O424        O  0.91688239  0.43495511  0.07923320    -0.83600
C425        C  0.90796431  0.40815831  0.08837354     1.11600
O426        O  0.02330290  0.60941785  0.12570363    -0.96700
Zr427      Zr  0.99963123  0.57011394  0.10539790     1.88900
O428        O  0.92011296  0.52243386  0.07819902    -0.73300
O429        O  0.94897521  0.44923846  0.12455364    -0.52600
O430        O  0.95145813  0.53680099  0.12338097    -0.97300
O431        O  0.00932574  0.63838195  0.10290666    -0.54500
O432        O  0.93618395  0.56057204  0.09679951    -0.73800
C433        C  0.91302654  0.54248995  0.08694457     0.98500
O434        O  0.93750742  0.46849101  0.05464711    -0.62700
O435        O  0.12882268  0.63131561  0.05901625    -0.57500
O436        O  0.98774024  0.53544747  0.05286219    -0.94100
O437        O  0.05194649  0.58983825  0.05362922    -0.92600
O438        O  0.11643090  0.52203379  0.05749614    -0.92900
O439        O  0.05173022  0.45080988  0.05785535    -0.91700
C440        C  0.01937770  0.56522954  0.04750101     1.17400
H441        H  0.13674818  0.57796263  0.08141985     0.33300
H442        H  0.98870109  0.43782114  0.07943137     0.44100
H443        H  0.99536210  0.58809402  0.07782966     0.37700
H444        H  0.02950610  0.53381609  0.12369294     0.34200
H445        H  0.09117154  0.42976080  0.07788717     0.25900
H446        H  0.94297980  0.42204483  0.12772494     0.31900
H447        H  0.93306538  0.54823758  0.12303023     0.37800
H448        H  0.10911210  0.54163580  0.05369881     0.32200
H449        H  0.13801169  0.66076360  0.05927411     0.31100
H450        H  0.04816769  0.65272376  0.06630418     0.32800
H451        H  0.99841546  0.63882123  0.09405579     0.31800
H452        H  0.02165230  0.43635452  0.05822490     0.35800
H453        H  0.93909542  0.44322506  0.05451035     0.28500
H454        H  0.14611913  0.59628923  0.13094256     0.32700
H455        H  0.00220250  0.61634771  0.12805544     0.35600
H456        H  0.15216751  0.62917644  0.06241101     0.28200
H457        H  0.90840387  0.45937066  0.05610651     0.41100
H458        H  0.99193313  0.39114530  0.09797785     0.31100
H459        H  0.07092641  0.42833355  0.09145512     0.38700
H460        H  0.03910699  0.65635290  0.10201083     0.30600
H461        H  0.96525238  0.46806254  0.13171467     0.30700
H462        H  0.10292446  0.59095545  0.13348716     0.30900
Zr463      Zr  0.21893106  0.43176645  0.23011140     2.17500
O464        O  0.25800797  0.45792153  0.20978734    -0.51400
O465        O  0.21170332  0.49054310  0.23446819    -0.74600
O466        O  0.17515735  0.42801962  0.21206214    -0.81400
O467        O  0.31159130  0.46646671  0.25119147    -0.83200
O468        O  0.11388226  0.36961910  0.21367473    -0.78800
O469        O  0.28922370  0.48534260  0.23313906    -0.90400
O470        O  0.17341907  0.47627165  0.25304423    -0.76400
O471        O  0.15093293  0.40137915  0.23810684    -0.85900
O472        O  0.22423946  0.43945751  0.25344947    -0.85600
O473        O  0.18558542  0.36184793  0.22323455    -0.72300
O474        O  0.25441787  0.39757411  0.23727686    -0.84500
Zr475      Zr  0.15764509  0.30417838  0.26320760     2.26400
Zr476      Zr  0.11813975  0.33114451  0.23217457     2.06300
Zr477      Zr  0.25796203  0.40394789  0.26072456     2.10000
Zr478      Zr  0.15614441  0.40921348  0.26126876     1.78800
O479        O  0.31033797  0.38474954  0.26166226    -0.93300
O480        O  0.09079318  0.40561959  0.25806363    -0.41100
O481        O  0.19020015  0.37463716  0.26894840    -0.77700
O482        O  0.12165017  0.33813173  0.25573336    -0.96400
O483        O  0.15196952  0.29609698  0.23981012    -0.89700
O484        O  0.22551837  0.33370476  0.25484393    -0.92500
C485        C  0.19370999  0.49959484  0.24337961     1.01200
C486        C  0.31663717  0.49085249  0.24163659     1.14100
C487        C  0.13873270  0.40367663  0.20816052     1.04900
O488        O  0.05276977  0.32859899  0.23232015    -0.94700
O489        O  0.06420968  0.26675124  0.24052750    -0.90400
O490        O  0.08710997  0.25084252  0.25912580    -0.83600
C491        C  0.05971826  0.24340358  0.25036475     1.11600
O492        O  0.26044736  0.35027877  0.21131974    -0.96700
Zr493      Zr  0.21935058  0.32714416  0.23136088     1.88900
O494        O  0.17332144  0.25000059  0.25965082    -0.73300
O495        O  0.10096738  0.28613746  0.21322100    -0.52600
O496        O  0.18482383  0.28292549  0.21266409    -0.97300
O497        O  0.28486649  0.33017676  0.23309333    -0.54500
O498        O  0.20216394  0.26054189  0.23930697    -0.73800
C499        C  0.18763866  0.23966565  0.24989208     0.98500
O500        O  0.12291896  0.26805517  0.28333592    -0.62700
O501        O  0.29832146  0.45482750  0.27731614    -0.57500
O502        O  0.18869532  0.32211657  0.28537356    -0.94100
O503        O  0.24658109  0.38357795  0.28358985    -0.92600
O504        O  0.18780647  0.45385197  0.28003618    -0.92900
O505        O  0.11468865  0.38673787  0.28117877    -0.91700
C506        C  0.21985671  0.35343895  0.29034585     1.17400
H507        H  0.23975762  0.46773200  0.25597140     0.33300
H508        H  0.09463322  0.32516284  0.25946647     0.44100
H509        H  0.23968456  0.32080860  0.25859024     0.37700
H510        H  0.18441538  0.36037784  0.21370884     0.34200
H511        H  0.09284270  0.42870889  0.26319344     0.25900
H512        H  0.09214281  0.25886573  0.21703283     0.31900
H513        H  0.15986887  0.25978462  0.21643018     0.37800
H514        H  0.20923140  0.44795267  0.28297818     0.32200
H515        H  0.32697415  0.46248738  0.27564695     0.31100
H516        H  0.33258043  0.40506011  0.25601722     0.32800
H517        H  0.28373837  0.31608585  0.24147322     0.31800
H518        H  0.10851806  0.35834936  0.28257361     0.35800
H519        H  0.09944909  0.27247305  0.28423466     0.28500
H520        H  0.25173624  0.47880322  0.20648284     0.32700
H521        H  0.26273512  0.32680632  0.20820858     0.35600
H522        H  0.29665015  0.47934515  0.27498695     0.28200
H523        H  0.11090615  0.23870665  0.28139321     0.41100
H524        H  0.04887670  0.33399441  0.24159403     0.31100
H525        H  0.09091849  0.41359304  0.24872914     0.38700
H526        H  0.30466386  0.35919993  0.23478861     0.30600
H527        H  0.07571028  0.28405310  0.20963216     0.30700
H528        H  0.24492487  0.43530277  0.20339868     0.30900
Zr529      Zr  0.63103538  0.82831021  0.22958826     2.17500
O530        O  0.60471718  0.84407588  0.20981795    -0.51400
O531        O  0.57511274  0.75963489  0.23286733    -0.74600
O532        O  0.63905181  0.79292099  0.21096241    -0.81400
O533        O  0.58865271  0.87640641  0.25126283    -0.83200
O534        O  0.69930387  0.79383166  0.21258696    -0.78800
O535        O  0.57464319  0.84080940  0.23216452    -0.90400
O536        O  0.58968346  0.73449776  0.25122945    -0.76400
O537        O  0.66334361  0.79234843  0.23756852    -0.85900
O538        O  0.62050577  0.82197612  0.25287544    -0.85600
O539        O  0.70123143  0.86926361  0.22335367    -0.72300
O540        O  0.66158775  0.89694049  0.23752379    -0.84500
Zr541      Zr  0.75539226  0.89560125  0.26366374     2.26400
Zr542      Zr  0.73358089  0.83370186  0.23200452     2.06300
Zr543      Zr  0.65266797  0.89011093  0.26083414     2.10000
Zr544      Zr  0.65343300  0.78663690  0.26074971     1.78800
O545        O  0.66634336  0.95998769  0.26150149    -0.93300
O546        O  0.66416564  0.72871079  0.25890620    -0.41100
O547        O  0.68469109  0.85416196  0.26917743    -0.77700
O548        O  0.72446423  0.82689438  0.25544826    -0.96400
O549        O  0.76507932  0.90147914  0.24034757    -0.89700
O550        O  0.72300754  0.93164103  0.25559807    -0.92500
C551        C  0.56699179  0.73139336  0.24136123     1.01200
C552        C  0.56636109  0.85915593  0.24117397     1.14100
C553        C  0.66530753  0.78354115  0.20688177     1.04900
O554        O  0.73885698  0.77237648  0.23253594    -0.94700
O555        O  0.79944544  0.84890009  0.24040548    -0.90400
O556        O  0.81406879  0.88752238  0.25890966    -0.83600
C557        C  0.82280922  0.86908273  0.25001536     1.11600
O558        O  0.70939062  0.95352658  0.21190575    -0.96700
Zr559      Zr  0.73243332  0.93669880  0.23225403     1.88900
O560        O  0.80869743  0.96660578  0.26088908    -0.73300
O561        O  0.77986812  0.86424509  0.21341297    -0.52600
O562        O  0.78068205  0.95152717  0.21434494    -0.97300
O563        O  0.72560094  0.99698534  0.23466504    -0.54500
O564        O  0.79640577  0.98848022  0.24136107    -0.73800
C565        C  0.81769471  0.99349667  0.25175674     0.98500
O566        O  0.78383010  0.88008236  0.28311811    -0.62700
O567        O  0.60228157  0.87882450  0.27770677    -0.57500
O568        O  0.74058132  0.91769582  0.28460951    -0.94100
O569        O  0.67368964  0.89902221  0.28351553    -0.92600
O570        O  0.60552810  0.76879378  0.27893774    -0.92900
O571        O  0.67477244  0.76990353  0.28141912    -0.91700
C572        C  0.70693798  0.91107805  0.28982831     1.17400
H573        H  0.59192933  0.80749128  0.25510150     0.33300
H574        H  0.73845108  0.81360587  0.25903374     0.44100
H575        H  0.73424224  0.95798068  0.25973464     0.37700
H576        H  0.70361389  0.87103364  0.21385410     0.34200
H577        H  0.64196759  0.70685952  0.26417887     0.25900
H578        H  0.80384925  0.88852034  0.21711005     0.31900
H579        H  0.80135636  0.98064526  0.21535279     0.37800
H580        H  0.59906876  0.79103185  0.27920370     0.32200
H581        H  0.59225638  0.89776596  0.27553244     0.31100
H582        H  0.65035123  0.96192646  0.25408127     0.32800
H583        H  0.74987616  0.01917115  0.23023750     0.31800
H584        H  0.70341980  0.79170033  0.28254160     0.35800
H585        H  0.76171829  0.86812040  0.28974611     0.28500
H586        H  0.58544215  0.81735644  0.20591156     0.32700
H587        H  0.73169042  0.98064674  0.20912987     0.35600
H588        H  0.57896470  0.85130802  0.27598220     0.28200
H589        H  0.78714214  0.85671888  0.28061924     0.41100
H590        H  0.71040696  0.74974161  0.23310786     0.31100
H591        H  0.65700094  0.71960075  0.24966092     0.38700
H592        H  0.73025485  0.00397098  0.24414567     0.30600
H593        H  0.78968231  0.84503435  0.21152848     0.30700
H594        H  0.62796468  0.85652615  0.20361233     0.30900
Zr595      Zr  0.51623961  0.58255858  0.10769799     2.17500
O596        O  0.47886864  0.57315603  0.12817963    -0.51400
O597        O  0.52919793  0.65122904  0.10360120    -0.74600
O598        O  0.56108045  0.61867974  0.12594576    -0.81400
O599        O  0.42174193  0.52745518  0.08733075    -0.83200
O600        O  0.61871309  0.61444989  0.12519934    -0.78800
O601        O  0.44620280  0.56784553  0.10541534    -0.90400
O602        O  0.56798189  0.67435806  0.08507949    -0.76400
O603        O  0.58435170  0.61677392  0.09969671    -0.85900
O604        O  0.51151870  0.58753740  0.08438758    -0.85600
O605        O  0.54455030  0.54085582  0.11422956    -0.72300
O606        O  0.47737029  0.51346057  0.10022226    -0.84500
Zr607      Zr  0.57066257  0.51195237  0.07396233     2.26400
Zr608      Zr  0.61240331  0.57479935  0.10560289     2.06300
Zr609      Zr  0.47420240  0.51891750  0.07685320     2.10000
Zr610      Zr  0.57974166  0.62158119  0.07649339     1.78800
O611        O  0.41764034  0.44934686  0.07527954    -0.93300
O612        O  0.64721623  0.68076549  0.07915147    -0.41100
O613        O  0.54194112  0.55379595  0.06839774    -0.77700
O614        O  0.60984088  0.58082413  0.08203903    -0.96400
O615        O  0.57532625  0.50685163  0.09732940    -0.89700
O616        O  0.50260326  0.47694791  0.08222362    -0.92500
C617        C  0.54877688  0.67852652  0.09478590     1.01200
C618        C  0.41784519  0.54642873  0.09713355     1.14100
C619        C  0.59584967  0.62652682  0.13043668     1.04900
O620        O  0.67888046  0.63635169  0.10538421    -0.94700
O621        O  0.66268458  0.55926897  0.09723349    -0.90400
O622        O  0.63912359  0.52331641  0.07820390    -0.83600
C623        C  0.66627646  0.54084490  0.08720691     1.11600
O624        O  0.46970546  0.45602719  0.12626153    -0.96700
Zr625      Zr  0.50784745  0.47312840  0.10562119     1.88900
O626        O  0.55111813  0.44052639  0.07708836    -0.73300
O627        O  0.62850507  0.54346422  0.12397617    -0.52600
O628        O  0.54436282  0.46104154  0.12326418    -0.97300
O629        O  0.44018728  0.41325105  0.10366972    -0.54500
O630        O  0.51873879  0.42034882  0.09688670    -0.73800
C631        C  0.53391494  0.41438603  0.08644999     0.98500
O632        O  0.60839918  0.51641840  0.05393947    -0.62700
O633        O  0.43983071  0.53954790  0.06079957    -0.57500
O634        O  0.53723344  0.49729455  0.05218026    -0.94100
O635        O  0.48262185  0.50634644  0.05416701    -0.92600
O636        O  0.55107964  0.63856420  0.05759251    -0.92900
O637        O  0.62143891  0.63744542  0.05673409    -0.91700
C638        C  0.50679855  0.49933161  0.04737464     1.17400
H639        H  0.49758065  0.60210024  0.08201572     0.33300
H640        H  0.63696244  0.59373794  0.07838774     0.44100
H641        H  0.48701756  0.45046313  0.07823549     0.37700
H642        H  0.54514144  0.53940876  0.12374892     0.34200
H643        H  0.64442527  0.70413470  0.07613997     0.25900
H644        H  0.65523386  0.56512388  0.12722970     0.31900
H645        H  0.53290165  0.43117466  0.12346871     0.37800
H646        H  0.56635027  0.66869477  0.05716051     0.32200
H647        H  0.41041044  0.52006828  0.06192556     0.31100
H648        H  0.40527667  0.44814392  0.06655245     0.32800
H649        H  0.44271106  0.39062937  0.10758671     0.31800
H650        H  0.61523233  0.61057013  0.05328435     0.35800
H651        H  0.63412907  0.54282821  0.05440845     0.28500
H652        H  0.48686938  0.60096297  0.13119662     0.32700
H653        H  0.46454388  0.42858525  0.12879238     0.35600
H654        H  0.44372350  0.56584668  0.06402472     0.28200
H655        H  0.61646306  0.49541168  0.05488206     0.41100
H656        H  0.68445636  0.64413218  0.09595341     0.31100
H657        H  0.65107946  0.68437174  0.08881746     0.38700
H658        H  0.43632311  0.40700644  0.09412818     0.30600
H659        H  0.60913552  0.54006790  0.13106108     0.30700
H660        H  0.49104217  0.56278742  0.13469637     0.30900
Zr661      Zr  0.49378422  0.97430661  0.10747322     2.17500
O662        O  0.50751622  0.94678701  0.12740368    -0.51400
O663        O  0.42666878  0.91771735  0.10287681    -0.74600
O664        O  0.45470029  0.97643456  0.12589354    -0.81400
O665        O  0.54880704  0.93849733  0.08566229    -0.83200
O666        O  0.45624499  0.03719296  0.12552909    -0.78800
O667        O  0.50903834  0.92017006  0.10400908    -0.90400
O668        O  0.40269104  0.93551146  0.08494523    -0.76400
O669        O  0.45842939  0.00802634  0.10034470    -0.85900
O670        O  0.48883198  0.96824025  0.08409338    -0.85600
O671        O  0.53371202  0.04330173  0.11489699    -0.72300
O672        O  0.56260083  0.00631085  0.09984085    -0.84500
Zr673      Zr  0.56284703  0.10438871  0.07528266     2.26400
Zr674      Zr  0.49884739  0.07713747  0.10699110     2.06300
Zr675      Zr  0.55725745  0.00130195  0.07642048     2.10000
Zr676      Zr  0.45369543  0.00238159  0.07710496     1.78800
O677        O  0.62634731  0.01343554  0.07447406    -0.93300
O678        O  0.39398689  0.00829385  0.08186628    -0.41100
O679        O  0.52163564  0.03469607  0.06889395    -0.77700
O680        O  0.49352739  0.07258012  0.08331335    -0.96400
O681        O  0.56707123  0.11033241  0.09874062    -0.89700
O682        O  0.59856709  0.07101458  0.08268704    -0.92500
C683        C  0.39928674  0.91083283  0.09423845     1.01200
C684        C  0.53017558  0.91441634  0.09533921     1.14100
C685        C  0.44486098  0.00175048  0.13045673     1.04900
O686        O  0.43786526  0.08279176  0.10837503    -0.94700
O687        O  0.51190472  0.14332985  0.09946364    -0.90400
O688        O  0.54455030  0.15666547  0.07969384    -0.83600
C689        C  0.52796229  0.16553828  0.08917249     1.11600
O690        O  0.61849629  0.05307058  0.12651902    -0.96700
Zr691      Zr  0.60145869  0.07610840  0.10622226     1.88900
O692        O  0.63377619  0.15641987  0.07926940    -0.73300
O693        O  0.53153730  0.11945026  0.12618723    -0.52600
O694        O  0.61641394  0.12369973  0.12428891    -0.97300
O695        O  0.65906447  0.06500172  0.10394890    -0.54500
O696        O  0.65494063  0.14042939  0.09820481    -0.73800
C697        C  0.66039164  0.16360858  0.08828042     0.98500
O698        O  0.57385998  0.14864963  0.05625418    -0.62700
O699        O  0.53551389  0.94940048  0.05936167    -0.57500
O700        O  0.57177683  0.08526495  0.05277355    -0.94100
O701        O  0.57009994  0.02454075  0.05397123    -0.92600
O702        O  0.43738165  0.96025895  0.05747820    -0.92900
O703        O  0.43443015  0.02989726  0.05842068    -0.91700
C704        C  0.57280887  0.05485724  0.04753487     1.17400
H705        H  0.47476395  0.94012487  0.08135933     0.33300
H706        H  0.47994240  0.08659793  0.08000323     0.44100
H707        H  0.62516927  0.08275372  0.07869748     0.37700
H708        H  0.53479647  0.04397639  0.12443008     0.34200
H709        H  0.37118425  0.98459527  0.07746353     0.25900
H710        H  0.55075244  0.14667607  0.12251406     0.31900
H711        H  0.61829021  0.14827818  0.12013442     0.37800
H712        H  0.46310480  0.97234047  0.05240130     0.32200
H713        H  0.55382817  0.93794691  0.06013907     0.31100
H714        H  0.62447862  0.99352997  0.06783655     0.32800
H715        H  0.68287122  0.09053923  0.10705385     0.31800
H716        H  0.45989943  0.05480296  0.05583068     0.35800
H717        H  0.54784442  0.14820729  0.05479006     0.28500
H718        H  0.48055178  0.92557853  0.13069231     0.32700
H719        H  0.64572271  0.07536120  0.12914696     0.35600
H720        H  0.50858009  0.92715296  0.06226951     0.28200
H721        H  0.59316312  0.17662339  0.05927052     0.41100
H722        H  0.42738047  0.07866654  0.09922061     0.31100
H723        H  0.38881552  0.00217381  0.09141364     0.38700
H724        H  0.66341096  0.06494349  0.09433049     0.30600
H725        H  0.50996202  0.12289921  0.13039056     0.30700
H726        H  0.51726831  0.96892537  0.13397927     0.30900
Zr727      Zr  0.23542017  0.84560201  0.22936222     2.17500
O728        O  0.22110652  0.80429237  0.20958530    -0.51400
O729        O  0.30364869  0.85810980  0.23359094    -0.74600
O730        O  0.27219523  0.88741787  0.21043909    -0.81400
O731        O  0.18263899  0.75493074  0.25155468    -0.83200
O732        O  0.27298709  0.94775372  0.21142168    -0.78800
O733        O  0.22291614  0.77682839  0.23336566    -0.90400
O734        O  0.32617947  0.89566202  0.25232388    -0.76400
O735        O  0.27205547  0.91384919  0.23714369    -0.85900
O736        O  0.23829839  0.84138879  0.25277884    -0.85600
O737        O  0.19740371  0.87730182  0.22220130    -0.72300
O738        O  0.16549737  0.80927621  0.23636346    -0.84500
Zr739      Zr  0.16687227  0.90549797  0.26160936     2.26400
Zr740      Zr  0.23363147  0.94512877  0.23066817     2.06300
Zr741      Zr  0.16898945  0.80654545  0.25981939     2.10000
Zr742      Zr  0.27455789  0.90976026  0.26042367     1.78800
O743        O  0.09836536  0.75181421  0.25982489    -0.93300
O744        O  0.33557719  0.97606793  0.25751075    -0.41100
O745        O  0.20594012  0.87453516  0.26793925    -0.77700
O746        O  0.23694530  0.94280038  0.25433601    -0.96400
O747        O  0.16465994  0.91071671  0.23821563    -0.89700
O748        O  0.12974829  0.83736852  0.25360225    -0.92500
C749        C  0.33042966  0.87675063  0.24256545     1.01200
C750        C  0.20246661  0.75001151  0.24224512     1.14100
C751        C  0.28240900  0.92304846  0.20601585     1.04900
O752        O  0.29811343  0.00898387  0.23136046    -0.94700
O753        O  0.21950888  0.99717648  0.23798310    -0.90400
O754        O  0.18533446  0.97610226  0.25746760    -0.83600
C755        C  0.20233216  0.00216675  0.24810337     1.11600
O756        O  0.11488898  0.80603203  0.20944795    -0.96700
Zr757      Zr  0.12881430  0.84322593  0.23013025     1.88900
O758        O  0.09716867  0.89039455  0.25757575    -0.73300
O759        O  0.20741032  0.96548116  0.21190946    -0.52600
O760        O  0.12045036  0.88171093  0.21222232    -0.97300
O761        O  0.06625603  0.77751008  0.23126927    -0.54500
O762        O  0.07694058  0.85710721  0.23804162    -0.73800
C763        C  0.07134653  0.87375132  0.24817874     0.98500
O764        O  0.16004916  0.93771780  0.28144899    -0.62700
O765        O  0.17612047  0.76656482  0.27751702    -0.57500
O766        O  0.15316237  0.87416565  0.28366313    -0.94100
O767        O  0.15854063  0.81728266  0.28243818    -0.92600
O768        O  0.28636763  0.87763075  0.27950568    -0.92900
O769        O  0.29253491  0.95152499  0.28017929    -0.91700
C770        C  0.15344519  0.84326351  0.28886223     1.17400
H771        H  0.25182568  0.82671749  0.25551090     0.33300
H772        H  0.25062728  0.96996160  0.25794551     0.44100
H773        H  0.10277967  0.82285118  0.25737075     0.37700
H774        H  0.19685240  0.87800479  0.21267529     0.34200
H775        H  0.35798607  0.97272950  0.26114367     0.25900
H776        H  0.23150742  0.98958298  0.20812587     0.31900
H777        H  0.09270894  0.87752387  0.21328733     0.37800
H778        H  0.31458811  0.88311874  0.27846018     0.32200
H779        H  0.15832677  0.73761014  0.27513942     0.31100
H780        H  0.09525090  0.73721511  0.25145244     0.32800
H781        H  0.04611112  0.78132986  0.22616736     0.31800
H782        H  0.26616367  0.94657208  0.28373189     0.35800
H783        H  0.18734044  0.96158610  0.28300701     0.28500
H784        H  0.24802641  0.81057222  0.20614174     0.32700
H785        H  0.09060748  0.80558557  0.20565400     0.35600
H786        H  0.20423066  0.77151890  0.27673504     0.28200
H787        H  0.14265961  0.94925715  0.27890732     0.41100
H788        H  0.30046521  0.01876100  0.24053468     0.31100
H789        H  0.34047763  0.97887877  0.24786697     0.38700
H790        H  0.05701130  0.77484541  0.24053486     0.30600
H791        H  0.19993450  0.94383929  0.20526960     0.30700
H792        H  0.21064059  0.81632892  0.20304872     0.30900
Zr793      Zr  0.81623791  0.63930483  0.77423127     2.17500
O794        O  0.82849126  0.60923280  0.79382099    -0.51400
O795        O  0.74739112  0.58375000  0.77016411    -0.74600
O796        O  0.78054897  0.64502415  0.79310164    -0.81400
O797        O  0.87507779  0.60473796  0.75373449    -0.83200
O798        O  0.77971531  0.70452600  0.79188712    -0.78800
O799        O  0.83157252  0.58499132  0.77115300    -0.90400
O800        O  0.72492915  0.59915107  0.75138493    -0.76400
O801        O  0.78059747  0.67207504  0.76644826    -0.85900
O802        O  0.81254489  0.63152564  0.75089654    -0.85600
O803        O  0.85621279  0.70902983  0.78117262    -0.72300
O804        O  0.88546920  0.67172422  0.76679079    -0.84500
Zr805      Zr  0.88518818  0.76749778  0.74136229     2.26400
Zr806      Zr  0.82074798  0.74181567  0.77275560     2.06300
Zr807      Zr  0.88141282  0.66535221  0.74340321     2.10000
Zr808      Zr  0.77713545  0.66458772  0.74319296     1.78800
O809        O  0.95186983  0.68123072  0.74176480    -0.93300
O810        O  0.71622746  0.66985206  0.74593373    -0.41100
O811        O  0.84520469  0.69744239  0.73525975    -0.77700
O812        O  0.81578331  0.73509532  0.74917558    -0.96400
O813        O  0.88915620  0.77492180  0.76477087    -0.89700
O814        O  0.92185471  0.73557820  0.74920653    -0.92500
C815        C  0.72041873  0.57591843  0.76124400     1.01200
C816        C  0.85486818  0.58014691  0.76314192     1.14100
C817        C  0.77001155  0.67017403  0.79736274     1.04900
O818        O  0.75982792  0.74775582  0.77306273    -0.94700
O819        O  0.83357385  0.80729174  0.76434298    -0.90400
O820        O  0.86839119  0.82094431  0.74500296    -0.83600
C821        C  0.85071433  0.82966444  0.75414773     1.11600
O822        O  0.94110384  0.71548760  0.79226687    -0.96700
Zr823      Zr  0.92439862  0.74200267  0.77268094     1.88900
O824        O  0.95617931  0.81977221  0.74480881    -0.73300
O825        O  0.85195013  0.78701653  0.79146245    -0.52600
O826        O  0.93840477  0.78767145  0.79126927    -0.97300
O827        O  0.98471637  0.73558571  0.76980434    -0.54500
O828        O  0.97589330  0.80817033  0.76479908    -0.73800
C829        C  0.98173233  0.82956352  0.75434825     0.98500
O830        O  0.88836219  0.81386052  0.72398250    -0.62700
O831        O  0.86380639  0.61156459  0.72725682    -0.57500
O832        O  0.89559446  0.74805880  0.71909810    -0.94100
O833        O  0.89129824  0.68621903  0.72062329    -0.92600
O834        O  0.76344134  0.61918888  0.72457766    -0.92900
O835        O  0.76082033  0.68916558  0.72314005    -0.91700
C836        C  0.89522106  0.71682041  0.71400768     1.17400
H837        H  0.79873114  0.60319122  0.74839480     0.33300
H838        H  0.80212412  0.74871443  0.74558950     0.44100
H839        H  0.94847902  0.74765421  0.74520999     0.37700
H840        H  0.85727983  0.71037980  0.79069828     0.34200
H841        H  0.69470859  0.64627335  0.74108251     0.25900
H842        H  0.87787295  0.80953183  0.78797333     0.31900
H843        H  0.96797614  0.80729621  0.79083078     0.37800
H844        H  0.79030884  0.62898138  0.72038308     0.32200
H845        H  0.88672123  0.60610181  0.72744773     0.31100
H846        H  0.96042452  0.69237799  0.73273474     0.32800
H847        H  0.00666865  0.75928207  0.77447889     0.31800
H848        H  0.78727871  0.70538798  0.71859259     0.35800
H849        H  0.91403470  0.82243288  0.71913862     0.28500
H850        H  0.80118967  0.58842789  0.79699478     0.32700
H851        H  0.96606525  0.73860459  0.79599649     0.35600
H852        H  0.84045674  0.58677430  0.73104154     0.28200
H853        H  0.86636980  0.79689197  0.71769900     0.41100
H854        H  0.74847728  0.74014804  0.76404395     0.31100
H855        H  0.70875327  0.66323370  0.75534982     0.38700
H856        H  0.99211441  0.74148091  0.76036886     0.30600
H857        H  0.83479388  0.79950672  0.79289270     0.30700
H858        H  0.83885371  0.63084967  0.80059130     0.30900
Zr859      Zr  0.55771050  0.50650782  0.89522363     2.17500
O860        O  0.54391229  0.46810807  0.87478823    -0.51400
O861        O  0.62585743  0.51821723  0.89930833    -0.74600
O862        O  0.59613893  0.55089521  0.87688953    -0.81400
O863        O  0.50372551  0.41390207  0.91662858    -0.83200
O864        O  0.59421391  0.60982574  0.87808878    -0.78800
O865        O  0.54394697  0.43701425  0.89841161    -0.90400
O866        O  0.64879905  0.55537120  0.91811012    -0.76400
O867        O  0.59375753  0.57431842  0.90329675    -0.85900
O868        O  0.56090624  0.50090346  0.91860153    -0.85600
O869        O  0.51837721  0.53748100  0.88869472    -0.72300
O870        O  0.48818647  0.46905236  0.90263274    -0.84500
Zr871      Zr  0.48905014  0.56361061  0.92878108     2.26400
Zr872      Zr  0.55424106  0.60502153  0.89749549     2.06300
Zr873      Zr  0.49194145  0.46528767  0.92606454     2.10000
Zr874      Zr  0.59712855  0.56900462  0.92648742     1.78800
O875        O  0.42105650  0.41101868  0.92605379    -0.93300
O876        O  0.65574724  0.63647808  0.92285132    -0.41100
O877        O  0.52893439  0.53292608  0.93441643    -0.77700
O878        O  0.55852071  0.60153974  0.92110583    -0.96400
O879        O  0.48567380  0.56917266  0.90538992    -0.89700
O880        O  0.45187127  0.49563617  0.92050250    -0.92500
C881        C  0.65289385  0.53672851  0.90824409     1.01200
C882        C  0.52286394  0.40943251  0.90702334     1.14100
C883        C  0.60534538  0.58646983  0.87263293     1.04900
O884        O  0.61809608  0.66942333  0.89857176    -0.94700
O885        O  0.54116802  0.65723268  0.90561051    -0.90400
O886        O  0.50477055  0.63386464  0.92463268    -0.83600
C887        C  0.52294244  0.66118549  0.91563831     1.11600
O888        O  0.43435941  0.46348341  0.87650657    -0.96700
Zr889      Zr  0.45007495  0.50180211  0.89703164     1.88900
O890        O  0.41882156  0.54677960  0.92527136    -0.73300
O891        O  0.52617592  0.62461534  0.87906465    -0.52600
O892        O  0.43703308  0.53823426  0.87954175    -0.97300
O893        O  0.38888343  0.43485467  0.89815461    -0.54500
O894        O  0.39801959  0.51407447  0.90562531    -0.73800
C895        C  0.39272892  0.53013191  0.91595056     0.98500
O896        O  0.48588660  0.59763706  0.94873622    -0.62700
O897        O  0.50012759  0.42353203  0.94286793    -0.57500
O898        O  0.47712361  0.53134691  0.95083076    -0.94100
O899        O  0.48364729  0.47518838  0.94906385    -0.92600
O900        O  0.61490969  0.53922833  0.94485450    -0.92900
O901        O  0.61491032  0.60858248  0.94671766    -0.91700
C902        C  0.47857873  0.50071288  0.95581537     1.17400
H903        H  0.57462628  0.48621188  0.92108253     0.33300
H904        H  0.57201548  0.62850598  0.92485851     0.44100
H905        H  0.42510276  0.48073139  0.92438455     0.37700
H906        H  0.51746960  0.53862596  0.87917662     0.34200
H907        H  0.67802390  0.63639009  0.92793148     0.25900
H908        H  0.54902156  0.65091802  0.87592737     0.31900
H909        H  0.40728614  0.52739105  0.87975031     0.37800
H910        H  0.58855821  0.51641006  0.94794908     0.32200
H911        H  0.48079257  0.39487550  0.94051759     0.31100
H912        H  0.41798859  0.39603247  0.91776866     0.32800
H913        H  0.36729595  0.43864622  0.89404642     0.31800
H914        H  0.58884525  0.60540486  0.94990440     0.35800
H915        H  0.51300017  0.62237180  0.94954492     0.28500
H916        H  0.57063944  0.47231227  0.87189056     0.32700
H917        H  0.40849880  0.46080015  0.87326685     0.35600
H918        H  0.52747480  0.42709413  0.94135039     0.28200
H919        H  0.46695597  0.60776256  0.94670718     0.41100
H920        H  0.62214335  0.67650906  0.90805671     0.31100
H921        H  0.66334433  0.63663735  0.91350035     0.38700
H922        H  0.38146854  0.43035716  0.90761480     0.30600
H923        H  0.52199512  0.60513416  0.87194640     0.30700
H924        H  0.53679946  0.48293682  0.86819901     0.30900
Zr925      Zr  0.41837247  0.22874386  0.77432679     2.17500
O926        O  0.44686319  0.27033140  0.79398616    -0.51400
O927        O  0.47330973  0.21493042  0.77034730    -0.74600
O928        O  0.41327229  0.18745249  0.79330304    -0.81400
O929        O  0.45768362  0.32041462  0.75251163    -0.83200
O930        O  0.35412769  0.12710245  0.79176356    -0.78800
O931        O  0.47376864  0.29767239  0.77110883    -0.90400
O932        O  0.45668076  0.17382260  0.75241443    -0.76400
O933        O  0.38529469  0.16018523  0.76696009    -0.85900
O934        O  0.42664888  0.23137989  0.75100365    -0.85600
O935        O  0.34883600  0.20076186  0.78118749    -0.72300
O936        O  0.38762066  0.26669825  0.76635028    -0.84500
Zr937      Zr  0.29093764  0.17092609  0.74142700     2.26400
Zr938      Zr  0.31600597  0.13246614  0.77321798     2.06300
Zr939      Zr  0.39467181  0.26772355  0.74303580     2.10000
Zr940      Zr  0.39237208  0.16257414  0.74370306     1.78800
O941        O  0.38114090  0.32398613  0.74199776    -0.93300
O942        O  0.38000253  0.09360689  0.74706429    -0.41100
O943        O  0.36090483  0.19896721  0.73543140    -0.77700
O944        O  0.32200902  0.13290756  0.74962236    -0.96400
O945        O  0.28367801  0.16835837  0.76484270    -0.89700
O946        O  0.32446955  0.23999569  0.74866346    -0.92500
C947        C  0.48041233  0.19411588  0.76193424     1.01200
C948        C  0.48080340  0.32500425  0.76237004     1.14100
C949        C  0.38821470  0.15130878  0.79733715     1.04900
O950        O  0.30861819  0.06488684  0.77362688    -0.94700
O951        O  0.24944824  0.08173600  0.76574043    -0.90400
O952        O  0.23635613  0.10148556  0.74594207    -0.83600
C953        C  0.22721079  0.07605972  0.75554351     1.11600
O954        O  0.34520112  0.28003278  0.79151774    -0.96700
Zr955      Zr  0.31728583  0.23695424  0.77212235     1.88900
O956        O  0.23915631  0.19075322  0.74434667    -0.73300
O957        O  0.27452743  0.12027350  0.79282072    -0.52600
O958        O  0.26936846  0.20711721  0.79037681    -0.97300
O959        O  0.32510383  0.30441116  0.76918428    -0.54500
O960        O  0.25246847  0.22488915  0.76373564    -0.73800
C961        C  0.23054560  0.20858988  0.75349045     0.98500
O962        O  0.24699437  0.12796187  0.72368769    -0.62700
O963        O  0.44664364  0.30155897  0.72607408    -0.57500
O964        O  0.31135616  0.20123328  0.71920144    -0.94100
O965        O  0.37458223  0.25697092  0.72032182    -0.92600
O966        O  0.43880321  0.19260950  0.72511223    -0.92900
O967        O  0.36990358  0.12180016  0.72369573    -0.91700
C968        C  0.34332760  0.23104813  0.71393435     1.17400
H969        H  0.45500375  0.24522565  0.74849958     0.33300
H970        H  0.30767906  0.10544836  0.74626495     0.44100
H971        H  0.31319609  0.25507108  0.74445393     0.37700
H972        H  0.34730895  0.20068182  0.79070645     0.34200
H973        H  0.40259939  0.09301165  0.74241723     0.25900
H974        H  0.25017427  0.12084699  0.78960938     0.31900
H975        H  0.24441304  0.18460408  0.78641920     0.37800
H976        H  0.43090205  0.21130857  0.72093029     0.32200
H977        H  0.45796607  0.33113225  0.72739506     0.31100
H978        H  0.39448802  0.33870952  0.73375345     0.32800
H979        H  0.30198278  0.30327204  0.77405515     0.31800
H980        H  0.35202525  0.13022188  0.71923123     0.35800
H981        H  0.23802282  0.14469262  0.71874194     0.28500
H982        H  0.46570771  0.26212960  0.79784284     0.32700
H983        H  0.32240382  0.28193845  0.79547016     0.35600
H984        H  0.46888292  0.29638652  0.72859296     0.28200
H985        H  0.26494557  0.12398583  0.71754785     0.41100
H986        H  0.30583093  0.05664254  0.76425600     0.31100
H987        H  0.38564016  0.09221658  0.75654538     0.38700
H988        H  0.31870398  0.30591792  0.75979310     0.30600
H989        H  0.26443883  0.09133933  0.79507700     0.30700
H990        H  0.42397011  0.26028703  0.80031241     0.30900
Zr991      Zr  0.53927434  0.09493850  0.89621393     2.17500
O992        O  0.57964422  0.12350445  0.87624420    -0.51400
O993        O  0.52367733  0.14845763  0.90029619    -0.74600
O994        O  0.49601096  0.08749991  0.87757684    -0.81400
O995        O  0.63008649  0.13732537  0.91823003    -0.83200
O996        O  0.43926374  0.02469906  0.87788796    -0.78800
O997        O  0.60728039  0.15287066  0.89954518    -0.90400
O998        O  0.48263712  0.13039792  0.91833766    -0.76400
O999        O  0.47045041  0.05853499  0.90346515    -0.85900
O1000       O  0.54072552  0.10253642  0.91954365    -0.85600
O1001       O  0.51397234  0.02578598  0.88939069    -0.72300
O1002       O  0.57929598  0.06660083  0.90424473    -0.84500
Zr1003     Zr  0.48537797  0.96723001  0.92935773     2.26400
Zr1004     Zr  0.44543123  0.98943307  0.89730997     2.06300
Zr1005     Zr  0.57921830  0.07304614  0.92757239     2.10000
Zr1006     Zr  0.47186533  0.06565169  0.92671361     1.78800
O1007       O  0.63915415  0.06550013  0.92878573    -0.93300
O1008       O  0.40358549  0.05401593  0.92266208    -0.41100
O1009       O  0.51059995  0.03689961  0.93528783    -0.77700
O1010       O  0.44494062  0.99546143  0.92094003    -0.96400
O1011       O  0.48382836  0.96013244  0.90593785    -0.89700
O1012       O  0.55427353  0.00340016  0.92193098    -0.92500
C1013       C  0.50252692  0.15467417  0.90881357     1.01200
C1014       C  0.63442181  0.16059387  0.90841164     1.14100
C1015       C  0.46174512  0.06036326  0.87285166     1.04900
O1016       O  0.37721210  0.98025176  0.89712814    -0.94700
O1017       O  0.39697491  0.92176247  0.90500026    -0.90400
O1018       O  0.41662447  0.91062563  0.92509833    -0.83600
C1019       C  0.39157681  0.90008954  0.91538082     1.11600
O1020       O  0.59458114  0.02383580  0.87880680    -0.96700
Zr1021     Zr  0.55223346  0.99663684  0.89847437     1.88900
O1022       O  0.50431181  0.91518245  0.92535855    -0.73300
O1023       O  0.43403575  0.94516270  0.87854726    -0.52600
O1024       O  0.52216990  0.94915539  0.88016117    -0.97300
O1025       O  0.62148376  0.00961537  0.90140364    -0.54500
O1026       O  0.54368843  0.93308138  0.90693584    -0.73800
C1027       C  0.52491279  0.90889269  0.91657576     0.98500
O1028       O  0.45097895  0.93066434  0.94949758    -0.62700
O1029       O  0.60781176  0.12530966  0.94456385    -0.57500
O1030       O  0.51754377  0.98565979  0.95139213    -0.94100
O1031       O  0.57172401  0.04994378  0.94996336    -0.83600
O1032       O  0.49768678  0.11017488  0.94582464    -0.92900
O1033       O  0.42854360  0.03996257  0.94617140    -0.91700
C1034       C  0.54752770  0.01790732  0.95645657     1.17400
H1035       H  0.55348940  0.13079731  0.92208104     0.33300
H1036       H  0.41748664  0.98016361  0.92428373     0.44100
H1037       H  0.57017697  0.99305225  0.92612341     0.37700
H1038       H  0.51422803  0.02446755  0.87986906     0.34200
H1039       H  0.40454039  0.07941885  0.92548971     0.25900
H1040       H  0.43642746  0.92217597  0.88220408     0.31900
H1041       H  0.51502845  0.92201950  0.88372064     0.37800
H1042       H  0.52310352  0.11044295  0.94824160     0.32200
H1043       H  0.63739996  0.13526068  0.94452875     0.31100
H1044       H  0.66190567  0.09319077  0.93068277     0.32800
H1045       H  0.62191782  0.98669312  0.89694078     0.31800
H1046       H  0.43432356  0.01923475  0.94994203     0.35800
H1047       H  0.42589542  0.93248137  0.95001805     0.28500
H1048       H  0.57243382  0.14369493  0.87292107     0.32700
H1049       H  0.59835218  0.00153725  0.87540058     0.35600
H1050       H  0.60521620  0.14836802  0.94109603     0.28200
H1051       H  0.44152395  0.90159450  0.94779667     0.41100
H1052       H  0.36957983  0.97842258  0.90654805     0.31100
H1053       H  0.40117545  0.05411235  0.91293056     0.38700
H1054       H  0.62378447  0.00482468  0.91089817     0.30600
H1055       H  0.40474880  0.93320346  0.87650009     0.30700
H1056       H  0.56798293  0.10119511  0.86971123     0.30900
Zr1057     Zr  0.95389317  0.49167761  0.89733380     2.17500
O1058       O  0.92968294  0.50742287  0.87705934    -0.51400
O1059       O  0.89527769  0.42571920  0.90221217    -0.74600
O1060       O  0.95560579  0.45146732  0.87906435    -0.81400
O1061       O  0.91885045  0.54770929  0.91899185    -0.83200
O1062       O  0.01444144  0.44945579  0.88024104    -0.78800
O1063       O  0.90063400  0.50844323  0.90058957    -0.90400
O1064       O  0.91194550  0.39997414  0.91995330    -0.76400
O1065       O  0.98381620  0.45341174  0.90526014    -0.85900
O1066       O  0.94681101  0.48857907  0.92070997    -0.85600
O1067       O  0.02357668  0.52876718  0.89020736    -0.72300
O1068       O  0.98821557  0.56122678  0.90451164    -0.84500
Zr1069     Zr  0.08249679  0.55719413  0.92947971     2.26400
Zr1070     Zr  0.05351709  0.49083671  0.89878602     2.06300
Zr1071     Zr  0.98235714  0.55739069  0.92794989     2.10000
Zr1072     Zr  0.97735486  0.45101625  0.92854022     1.78800
O1073       O  0.99745159  0.62773362  0.92891478    -0.93300
O1074       O  0.98527154  0.39140561  0.92653464    -0.41100
O1075       O  0.01266226  0.51952765  0.93611244    -0.77700
O1076       O  0.04796472  0.48721776  0.92241183    -0.96400
O1077       O  0.08900422  0.55990596  0.90606492    -0.89700
O1078       O  0.05227207  0.59547448  0.92166453    -0.92500
C1079       C  0.88761939  0.39766909  0.91073967     1.01200
C1080       C  0.89470375  0.52918281  0.90935768     1.14100
C1081       C  0.98019516  0.44008859  0.87488354     1.04900
O1082       O  0.05541570  0.42762789  0.90018186    -0.94700
O1083       O  0.12100436  0.50671911  0.90558451    -0.90400
O1084       O  0.13676269  0.54260895  0.92467746    -0.83600
C1085       C  0.14466276  0.52493569  0.91534802     1.11600
O1086       O  0.03183779  0.61275935  0.87837979    -0.96700
Zr1087     Zr  0.05839351  0.59743792  0.89822775     1.88900
O1088       O  0.13772544  0.62623792  0.92566384    -0.73300
O1089       O  0.09434289  0.51285717  0.87875032    -0.52600
O1090       O  0.10531674  0.61190989  0.87992789    -0.97300
O1091       O  0.05384706  0.65903085  0.90044753    -0.54500
O1092       O  0.12424612  0.64855435  0.90646598    -0.73800
C1093       C  0.14668690  0.65288640  0.91650437     0.98500
O1094       O  0.11683320  0.55192191  0.94917398    -0.62700
O1095       O  0.93241440  0.54213383  0.94534616    -0.57500
O1096       O  0.07055624  0.57825033  0.95097568    -0.94100
O1097       O  0.00746146  0.57117904  0.95019474    -0.92600
O1098       O  0.92913315  0.43823148  0.94625659    -0.92900
O1099       O  0.99598891  0.43269038  0.94944546    -0.91700
C1100       C  0.03981919  0.57818282  0.95629981     1.17400
H1101       H  0.91861657  0.47566705  0.92334613     0.33300
H1102       H  0.06129929  0.47333802  0.92605862     0.44100
H1103       H  0.06520032  0.62227322  0.92552175     0.37700
H1104       H  0.02477121  0.52928273  0.88067463     0.34200
H1105       H  0.96089785  0.36915181  0.93089811     0.25900
H1106       H  0.11865746  0.53904150  0.88109968     0.31900
H1107       H  0.12900663  0.61152995  0.88388220     0.37800
H1108       H  0.93965889  0.46490728  0.95063841     0.32200
H1109       H  0.92338487  0.56235755  0.94423714     0.31100
H1110       H  0.98131983  0.63024091  0.92165151     0.32800
H1111       H  0.07965829  0.68109000  0.89672680     0.31800
H1112       H  0.01391479  0.45906777  0.95379230     0.35800
H1113       H  0.11554879  0.52524663  0.94862370     0.28500
H1114       H  0.90799919  0.48088903  0.87369247     0.32700
H1115       H  0.05353080  0.63981733  0.87530515     0.35600
H1116       H  0.90851249  0.51572979  0.94290068     0.28200
H1117       H  0.14594634  0.57251541  0.94802350     0.41100
H1118       H  0.06076479  0.42482685  0.90959002     0.31100
H1119       H  0.98108510  0.38454214  0.91703302     0.38700
H1120       H  0.05604746  0.66473800  0.91001991     0.30600
H1121       H  0.10461058  0.49360762  0.87779890     0.30700
H1122       H  0.95233254  0.51634724  0.87068388     0.30900
Zr1123     Zr  0.82587037  0.23942948  0.77415072     2.17500
O1124       O  0.78322291  0.22197872  0.79379404    -0.51400
O1125       O  0.83700469  0.30769959  0.77086105    -0.74600
O1126       O  0.86564988  0.27630226  0.79312019    -0.81400
O1127       O  0.73598550  0.18533261  0.75160293    -0.83200
O1128       O  0.92470618  0.27459872  0.79309727    -0.78800
O1129       O  0.75679472  0.22459198  0.77001134    -0.90400
O1130       O  0.88063327  0.33533343  0.75357225    -0.76400
O1131       O  0.89513668  0.27720215  0.76742982    -0.85900
O1132       O  0.82508361  0.24736734  0.75087860    -0.85600
O1133       O  0.85570750  0.19931164  0.78102519    -0.72300
O1134       O  0.79094039  0.17152515  0.76556662    -0.84500
Zr1135     Zr  0.89072216  0.17749816  0.74118237     2.26400
Zr1136     Zr  0.92480992  0.23706377  0.77364896     2.06300
Zr1137     Zr  0.79169288  0.18001548  0.74222508     2.10000
Zr1138     Zr  0.89426616  0.28471277  0.74421769     1.78800
O1139       O  0.73584359  0.11034412  0.73975831    -0.93300
O1140       O  0.96052111  0.34537189  0.74741129    -0.41100
O1141       O  0.86086484  0.21798258  0.73498133    -0.77700
O1142       O  0.92565461  0.24554214  0.75013300    -0.96400
O1143       O  0.89157892  0.17006740  0.76455466    -0.89700
O1144       O  0.82135074  0.13927621  0.74799967    -0.92500
C1145       C  0.85882081  0.33703633  0.76290516     1.01200
C1146       C  0.73012272  0.20347061  0.76125767     1.14100
C1147       C  0.90022282  0.28512653  0.79803678     1.04900
O1148       O  0.98978445  0.30009006  0.77518290    -0.94700
O1149       O  0.97914915  0.22673477  0.76566484    -0.90400
O1150       O  0.96010993  0.19340614  0.74602551    -0.83600
C1151       C  0.98560396  0.21076668  0.75547751     1.11600
O1152       O  0.77923214  0.11261239  0.79090541    -0.96700
Zr1153     Zr  0.82266210  0.13265545  0.77140655     1.88900
O1154       O  0.87598829  0.10727889  0.74411006    -0.73300
O1155       O  0.93890887  0.20446680  0.79211376    -0.52600
O1156       O  0.85403833  0.11508305  0.78937659    -0.97300
O1157       O  0.75614748  0.07242437  0.76803140    -0.54500
O1158       O  0.83794356  0.08258046  0.76273877    -0.73800
C1159       C  0.85710651  0.07935675  0.75285946     0.98500
O1160       O  0.93791002  0.18797191  0.72326562    -0.62700
O1161       O  0.76149551  0.20440078  0.72583297    -0.57500
O1162       O  0.85849773  0.15987194  0.71921443    -0.94100
O1163       O  0.80325397  0.16823920  0.71977311    -0.92600
O1164       O  0.86299205  0.30088148  0.72589717    -0.92900
O1165       O  0.93824628  0.30538352  0.72489955    -0.91700
C1166       C  0.82854618  0.16118238  0.71369932     1.17400
H1167       H  0.81073678  0.26145221  0.74842444     0.33300
H1168       H  0.95335948  0.25999831  0.74697610     0.44100
H1169       H  0.80748151  0.11323891  0.74362986     0.37700
H1170       H  0.85474103  0.19676338  0.79053348     0.34200
H1171       H  0.95883590  0.36729001  0.74259648     0.25900
H1172       H  0.96703734  0.22440628  0.79482058     0.31900
H1173       H  0.88011604  0.11947287  0.78574277     0.37800
H1174       H  0.87530686  0.33085454  0.72616145     0.32200
H1175       H  0.73215012  0.18382704  0.72572504     0.31100
H1176       H  0.71088174  0.11167322  0.74146734     0.32800
H1177       H  0.75871478  0.04962468  0.77176612     0.31800
H1178       H  0.93620645  0.27984159  0.72167631     0.35800
H1179       H  0.92621278  0.16174332  0.71851953     0.28500
H1180       H  0.78556190  0.24794147  0.79670735     0.32700
H1181       H  0.77734630  0.08701722  0.79412309     0.35600
H1182       H  0.76290345  0.22897822  0.72970232     0.28200
H1183       H  0.93592545  0.20708739  0.71701458     0.41100
H1184       H  0.99585334  0.31079910  0.76603279     0.31100
H1185       H  0.96106271  0.35229412  0.75684550     0.38700
H1186       H  0.75395935  0.06764861  0.75839818     0.30600
H1187       H  0.92168255  0.20434413  0.79944966     0.30700
H1188       H  0.79738552  0.21512398  0.80069523     0.30900
C1189       C  0.94616872  0.34023940  0.82676272     0.29700
C1190       C  0.97611261  0.35805061  0.83656405    -0.36700
C1191       C  0.96865608  0.37926220  0.84642870     0.15600
C1192       C  0.93410096  0.38262885  0.84664407     0.21500
C1193       C  0.90417541  0.36480539  0.83687000    -0.34800
C1194       C  0.91167240  0.34370362  0.82700963     0.15600
O1195       O  0.94692304  0.31922048  0.81655487    -0.26800
C1196       C  0.91243634  0.30911713  0.81021554     0.05300
C1197       C  0.88934046  0.32358149  0.81626934    -0.31700
O1198       O  0.93349899  0.40415428  0.85669175    -0.23500
C1199       C  0.96810538  0.41474367  0.86301149    -0.03500
C1200       C  0.99125126  0.40012471  0.85707934    -0.18000
H1201       H  0.00336061  0.35569542  0.83647161     0.20000
H1202       H  0.87704627  0.36738023  0.83691649     0.18400
H1203       H  0.86035192  0.31985460  0.81317720     0.18300
H1204       H  0.02053460  0.40452291  0.86011733     0.14200
C1205       C  0.23212916  0.74876443  0.91172893     0.29700
C1206       C  0.25606979  0.78527167  0.90494695    -0.36700
C1207       C  0.29375200  0.81174315  0.91059711     0.15600
C1208       C  0.30736110  0.80325700  0.92217689     0.21500
C1209       C  0.28324831  0.76636421  0.92901465    -0.34800
C1210       C  0.24520907  0.73963119  0.92331408     0.15600
O1211       O  0.19601318  0.71977925  0.90801492    -0.26800
C1212       C  0.18540146  0.69138651  0.91729150     0.05300
C1213       C  0.21477342  0.70195971  0.92712064    -0.31700
O1214       O  0.34387619  0.83309278  0.92558867    -0.23500
C1215       C  0.35339410  0.86069336  0.91599624    -0.03500
C1216       C  0.32327071  0.84882537  0.90645398    -0.18000
H1217       H  0.24598864  0.79252714  0.89584804     0.20000
H1218       H  0.29336817  0.75903712  0.93809027     0.18400
H1219       H  0.21393720  0.68435584  0.93568926     0.18300
H1220       H  0.32307084  0.86533953  0.89772195     0.14200
C1221       C  0.73302253  0.24118692  0.91313095     0.29700
C1222       C  0.77029246  0.26199331  0.91971219    -0.36700
C1223       C  0.79790589  0.30036459  0.91465289     0.15600
C1224       C  0.78965205  0.31724792  0.90380688     0.21500
C1225       C  0.75219825  0.29622700  0.89714806    -0.34800
C1226       C  0.72430571  0.25763357  0.90226391     0.15600
O1227       O  0.70272072  0.20533356  0.91647898    -0.26800
C1228       C  0.67391748  0.19829090  0.90769347     0.05300
C1229       C  0.68553066  0.22975945  0.89852998    -0.31700
O1230       O  0.82011353  0.35385302  0.90090435    -0.23500
C1231       C  0.84801512  0.36017241  0.91002035    -0.03500
C1232       C  0.83576001  0.32793790  0.91883430    -0.18000
H1233       H  0.77712094  0.24925199  0.92827603     0.20000
H1234       H  0.74520982  0.30916229  0.88867547     0.18400
H1235       H  0.66792389  0.23196365  0.89047400     0.18300
H1236       H  0.85231830  0.32530339  0.92714541     0.14200
C1237       C  0.07215129  0.20359187  0.74797746     0.29700
C1238       C  0.09593589  0.19107903  0.74098761    -0.36700
C1239       C  0.13400976  0.20188796  0.74652694     0.15600
C1240       C  0.14763946  0.22368594  0.75809274     0.21500
C1241       C  0.12411403  0.23646941  0.76499436    -0.34800
C1242       C  0.08610517  0.22545704  0.75951860     0.15600
O1243       O  0.03505304  0.19566475  0.74489879    -0.26800
C1244       C  0.02524117  0.21267060  0.75462217     0.05300
C1245       C  0.05592312  0.23165993  0.76396957    -0.31700
O1246       O  0.18327820  0.22920990  0.76181507    -0.23500
C1247       C  0.19295525  0.21083044  0.75254349    -0.03500
C1248       C  0.16343093  0.19329629  0.74272472    -0.18000
H1249       H  0.08518567  0.17348754  0.73201450     0.20000
H1250       H  0.13440323  0.25313317  0.77415663     0.18400
H1251       H  0.05575300  0.24728501  0.77285435     0.18300
H1252       H  0.16322997  0.17597475  0.73424850     0.14200
C1253       C  0.56527972  0.18227674  0.75815051     0.29700
C1254       C  0.58918244  0.16870155  0.75198377    -0.36700
C1255       C  0.62803748  0.18314967  0.75726745     0.15600
C1256       C  0.64259939  0.20917814  0.76790853     0.21500
C1257       C  0.61855174  0.22271150  0.77413016    -0.34800
C1258       C  0.57951709  0.20821536  0.76882395     0.15600
O1259       O  0.52849684  0.17346868  0.75452272    -0.26800
C1260       C  0.51882967  0.19390604  0.76297635     0.05300
C1261       C  0.54935733  0.21603707  0.77214146    -0.31700
O1262       O  0.68040008  0.21957143  0.77094186    -0.23500
C1263       C  0.68990599  0.19985534  0.76210416    -0.03500
C1264       C  0.65846484  0.17674246  0.75337947    -0.18000
H1265       H  0.57843011  0.14870744  0.74352961     0.20000
H1266       H  0.62965499  0.24345165  0.78239094     0.18400
H1267       H  0.54961368  0.23569065  0.77988608     0.18300
H1268       H  0.65833524  0.15842029  0.74520734     0.14200
C1269       C  0.44887307  0.10986580  0.84555785     0.29700
C1270       C  0.45924593  0.14302471  0.83710279    -0.36700
C1271       C  0.43300364  0.13574135  0.82643590     0.15600
C1272       C  0.39873747  0.09844272  0.82423140     0.21500
C1273       C  0.38847997  0.06510546  0.83267760    -0.34800
C1274       C  0.41484675  0.07236220  0.84338562     0.15600
O1275       O  0.46926878  0.11015515  0.85611027    -0.26800
C1276       C  0.44825683  0.07238527  0.86085312     0.05300
C1277       C  0.41396004  0.04736323  0.85333554    -0.31700
O1278       O  0.37822078  0.09878176  0.81372607    -0.23500
C1279       C  0.39976531  0.13676352  0.80916202    -0.03500
C1280       C  0.43426352  0.16103134  0.81665655    -0.18000
H1281       H  0.48590698  0.17250382  0.83875402     0.20000
H1282       H  0.36177051  0.03567094  0.83104085     0.18400
H1283       H  0.39183199  0.01556689  0.85493706     0.18300
H1284       H  0.45681577  0.19276849  0.81515544     0.14200
C1285       C  0.74866132  0.54651094  0.91281402     0.29700
C1286       C  0.78506007  0.55812357  0.91952995    -0.36700
C1287       C  0.81058727  0.54565819  0.91390746     0.15600
C1288       C  0.80118251  0.52324583  0.90244383     0.21500
C1289       C  0.76462080  0.51163173  0.89567385    -0.34800
C1290       C  0.73892425  0.52415560  0.90132525     0.15600
O1291       O  0.72005737  0.55416998  0.91657353    -0.26800
C1292       C  0.69140781  0.53652957  0.90741136     0.05300
C1293       C  0.70147051  0.51743826  0.89762543    -0.31700
O1294       O  0.82958057  0.51450208  0.89913425    -0.23500
C1295       C  0.85739689  0.53173937  0.90861271    -0.03500
C1296       C  0.84706231  0.55144587  0.91804427    -0.18000
H1297       H  0.79277305  0.57537880  0.92859476     0.20000
H1298       H  0.75661821  0.49382009  0.88672539     0.18400
H1299       H  0.68353379  0.50054029  0.88918888     0.18300
H1300       H  0.86384165  0.56735397  0.92678415     0.14200
C1301       C  0.29663534  0.51869028  0.91108597     0.29700
C1302       C  0.26071395  0.50711618  0.90410450    -0.36700
C1303       C  0.23322732  0.51637077  0.91005031     0.15600
C1304       C  0.24041230  0.53581938  0.92205279     0.21500
C1305       C  0.27657543  0.54746557  0.92908814    -0.34800
C1306       C  0.30422559  0.53808314  0.92311694     0.15600
O1307       O  0.32647238  0.51320068  0.90718892    -0.26800
C1308       C  0.35375169  0.52918212  0.91681026     0.05300
C1309       C  0.34166595  0.54518419  0.92702917    -0.31700
O1310       O  0.21025418  0.54159449  0.92563089    -0.23500
C1311       C  0.18361385  0.52548889  0.91576858    -0.03500
C1312       C  0.19640391  0.50940660  0.90583731    -0.18000
H1313       H  0.25467980  0.49203581  0.89464926     0.20000
H1314       H  0.28275840  0.56282180  0.93849474     0.18400
H1315       H  0.35817509  0.56014147  0.93591197     0.18300
H1316       H  0.18084811  0.49484396  0.89678105     0.14200
C1317       C  0.50032018  0.30898707  0.91125149     0.29700
C1318       C  0.48204731  0.27079714  0.91745475    -0.36700
C1319       C  0.49182658  0.24273732  0.91224482     0.15600
C1320       C  0.51777338  0.25162017  0.90165012     0.21500
C1321       C  0.53584204  0.28982613  0.89537601    -0.34800
C1322       C  0.52611974  0.31801784  0.90060928     0.15600
O1323       O  0.49609861  0.33991645  0.91474537    -0.26800
C1324       C  0.51933493  0.36924516  0.90624225     0.05300
C1325       C  0.53886913  0.35746857  0.89717856    -0.31700
O1326       O  0.52415264  0.22143224  0.89882722    -0.23500
C1327       C  0.50200916  0.19294620  0.90772771    -0.03500
C1328       C  0.48105181  0.20442732  0.91629165    -0.18000
H1329       H  0.46216670  0.26372923  0.92589810     0.20000
H1330       H  0.55658687  0.29726894  0.88716267     0.18400
H1331       H  0.55958645  0.37537138  0.88934973     0.18300
H1332       H  0.46182917  0.18754239  0.92455196     0.14200
C1333       C  0.51429069  0.81240038  0.92256729     0.29700
C1334       C  0.49879901  0.77374421  0.92848081    -0.36700
C1335       C  0.51126100  0.74794561  0.92283413     0.15600
C1336       C  0.53699348  0.75943133  0.91208510     0.21500
C1337       C  0.55254124  0.79795303  0.90623000    -0.34800
C1338       C  0.54027714  0.82367147  0.91189479     0.15600
O1339       O  0.50586474  0.84104976  0.92592421    -0.26800
C1340       C  0.52688311  0.87100875  0.91728413     0.05300
C1341       C  0.54889049  0.86177388  0.90837358    -0.31700
O1342       O  0.54434872  0.73062596  0.90824980    -0.23500
C1343       C  0.52331688  0.70013666  0.91666972    -0.03500
C1344       C  0.50205882  0.70914596  0.92598698    -0.18000
H1345       H  0.47823820  0.76432583  0.93681461     0.20000
H1346       H  0.57259588  0.80713134  0.89776329     0.18400
H1347       H  0.56771526  0.88013214  0.90024328     0.18300
H1348       H  0.48249486  0.68984324  0.93383296     0.14200
C1349       C  0.07752221  0.91518177  0.75937434     0.29700
C1350       C  0.11348510  0.93966154  0.76632929    -0.36700
C1351       C  0.14015199  0.97731776  0.76055051     0.15600
C1352       C  0.13222535  0.99030041  0.74872921     0.21500
C1353       C  0.09609126  0.96566554  0.74173377    -0.34800
C1354       C  0.06927388  0.92774362  0.74752192     0.15600
O1355       O  0.04818563  0.87911556  0.76313809    -0.26800
C1356       C  0.02062031  0.86808294  0.75358550     0.05300
C1357       C  0.03207164  0.89712356  0.74356615    -0.31700
O1358       O  0.16170676  0.02692994  0.74524776    -0.23500
C1359       C  0.18865224  0.03724756  0.75500535    -0.03500
C1360       C  0.17673349  0.00751186  0.76476300    -0.18000
H1361       H  0.12013586  0.93007251  0.77564210     0.20000
H1362       H  0.08931665  0.97539865  0.73247526     0.18400
H1363       H  0.01520824  0.89607961  0.73480088     0.18300
H1364       H  0.19277967  0.00810844  0.77369120     0.14200
C1365       C  0.56232423  0.42331550  0.75798161     0.29700
C1366       C  0.58496760  0.46018627  0.75123871    -0.36700
C1367       C  0.62205379  0.48793023  0.75697674     0.15600
C1368       C  0.63618114  0.48012612  0.76857176     0.21500
C1369       C  0.61321882  0.44311579  0.77542300    -0.34800
C1370       C  0.57587953  0.41515414  0.76964355     0.15600
O1371       O  0.52730309  0.39291081  0.75409979    -0.26800
C1372       C  0.51797037  0.36466548  0.76334954     0.05300
C1373       C  0.54699232  0.37669648  0.77333649    -0.31700
O1374       O  0.67260517  0.51020837  0.77181642    -0.23500
C1375       C  0.68158083  0.53742681  0.76215817    -0.03500
C1376       C  0.65110813  0.52516217  0.75271526    -0.18000
H1377       H  0.57460829  0.46655527  0.74203686     0.20000
H1378       H  0.62394860  0.43638189  0.78447830     0.18400
H1379       H  0.54699450  0.35950611  0.78190828     0.18300
H1380       H  0.65081973  0.54103502  0.74382896     0.14200
C1381       C  0.84173462  0.98093088  0.75669985     0.29700
C1382       C  0.82560970  0.94284267  0.76284217    -0.36700
C1383       C  0.83766893  0.91651123  0.75764262     0.15600
C1384       C  0.86378629  0.92662680  0.74704976     0.21500
C1385       C  0.87997287  0.96501031  0.74081653    -0.34800
C1386       C  0.86788834  0.99164121  0.74608466     0.15600
O1387       O  0.83478709  0.01014527  0.76025807    -0.26800
C1388       C  0.85652886  0.04032489  0.75184146     0.05300
C1389       C  0.87792211  0.03066674  0.74274884    -0.31700
O1390       O  0.87154366  0.89720078  0.74412942    -0.23500
C1391       C  0.85010189  0.86815836  0.75303087    -0.03500
C1392       C  0.82847497  0.87865302  0.76163271    -0.18000
H1393       H  0.80535268  0.93448063  0.77123421     0.20000
H1394       H  0.90079440  0.97364205  0.73257287     0.18400
H1395       H  0.89812589  0.04967740  0.73497573     0.18300
H1396       H  0.80928053  0.86114132  0.76981757     0.14200
C1397       C  0.87363487  0.43525828  0.76034050     0.29700
C1398       C  0.88977862  0.47409808  0.75480593    -0.36700
C1399       C  0.87532788  0.49842181  0.76001719     0.15600
C1400       C  0.84684248  0.48566610  0.77000980     0.21500
C1401       C  0.83081691  0.44666538  0.77566570    -0.34800
C1402       C  0.84536007  0.42213341  0.77041443     0.15600
O1403       O  0.88208770  0.40727345  0.75656492    -0.26800
C1404       C  0.85911529  0.37561799  0.76430425     0.05300
C1405       C  0.83559531  0.38300723  0.77317580    -0.31700
O1406       O  0.83630571  0.51310964  0.77280988    -0.23500
C1407       C  0.85849016  0.54357782  0.76447681    -0.03500
C1408       C  0.88338979  0.53608428  0.75636545    -0.18000
H1409       H  0.91152793  0.48435175  0.74678844     0.20000
H1410       H  0.80808602  0.43593731  0.78338881     0.18400
H1411       H  0.81401205  0.36238098  0.78038349     0.18300
H1412       H  0.90346897  0.55509833  0.74856194     0.14200
C1413       C  0.70945021  0.65810131  0.82512384     0.29700
C1414       C  0.68873046  0.66836874  0.83444966    -0.36700
C1415       C  0.66686805  0.63878178  0.84418650     0.15600
C1416       C  0.66556456  0.60177038  0.84467122     0.21500
C1417       C  0.68615424  0.59155406  0.83538486    -0.34800
C1418       C  0.70792995  0.62100904  0.82571760     0.15600
O1419       O  0.73170154  0.68085496  0.81511996    -0.26800
C1420       C  0.74453841  0.65788595  0.80931394     0.05300
C1421       C  0.73063133  0.62040678  0.81551214    -0.31700
O1422       O  0.64372421  0.57873120  0.85461022    -0.23500
C1423       C  0.63069277  0.60109009  0.86065240    -0.03500
C1424       C  0.64408619  0.63880546  0.85459086    -0.18000
H1425       H  0.68963112  0.69733047  0.83415016     0.20000
H1426       H  0.68533648  0.56262822  0.83569698     0.18400
H1427       H  0.73622288  0.59606686  0.81281145     0.18300
H1428       H  0.63814143  0.66275359  0.85748586     0.14200
C1429       C  0.56149282  0.02265516  0.01479964     0.29700
C1430       C  0.54766895  0.99360738  0.00466453    -0.36700
C1431       C  0.55286029  0.00895780  0.99175478     0.15600
C1432       C  0.57117333  0.05012842  0.98910666     0.21500
C1433       C  0.58463630  0.07909924  0.99923421    -0.34800
C1434       C  0.57872224  0.06371714  0.01213163     0.15600
O1435       O  0.55848114  0.01490350  0.02753713    -0.26800
C1436       C  0.57348120  0.05131601  0.03313499     0.05300
C1437       C  0.58642986  0.08296168  0.02403716    -0.31700
O1438       O  0.57237192  0.05791422  0.97641911    -0.23500
C1439       C  0.55411032  0.02138423  0.97079331    -0.03500
C1440       C  0.54118273  0.98956049  0.97984556    -0.18000
H1441       H  0.53314047  0.96129200  0.00672687     0.20000
H1442       H  0.59800991  0.11132312  0.99718690     0.18400
H1443       H  0.59913163  0.11512886  0.02591432     0.18300
H1444       H  0.52517092  0.95716589  0.97795354     0.14200
C1445       C  0.38431219  0.98994529  0.15805851     0.29700
C1446       C  0.36470862  0.00127632  0.16742189    -0.36700
C1447       C  0.34262607  0.97222574  0.17721179     0.15600
C1448       C  0.34011634  0.93466483  0.17776131     0.21500
C1449       C  0.35953464  0.92324129  0.16837871    -0.34800
C1450       C  0.38151648  0.95225084  0.15858897     0.15600
O1451       O  0.40685293  0.01246899  0.14810909    -0.26800
C1452       C  0.41858843  0.98884590  0.14219375     0.05300
C1453       C  0.40364826  0.95099274  0.14827831    -0.31700
O1454       O  0.31846377  0.91250212  0.18786848    -0.23500
C1455       C  0.30686044  0.93608521  0.19388466    -0.03500
C1456       C  0.32088450  0.97360192  0.18766998    -0.18000
H1457       H  0.36669534  0.03073878  0.16712829     0.20000
H1458       H  0.35779382  0.89388399  0.16872996     0.18400
H1459       H  0.40853669  0.92623965  0.14552008     0.18300
H1460       H  0.31610544  0.99834394  0.19052134     0.14200
C1461       C  0.50101671  0.48431665  0.01300342     0.29700
C1462       C  0.50781531  0.47158178  0.00078186    -0.36700
C1463       C  0.49255175  0.48186000  0.98965658     0.15600
C1464       C  0.47269273  0.50391157  0.99039392     0.21500
C1465       C  0.46524891  0.51602096  0.00263124    -0.34800
C1466       C  0.47987772  0.50510243  0.01376660     0.15600
O1467       O  0.51356496  0.47905751  0.02467648    -0.26800
C1468       C  0.49957284  0.49612605  0.03302123     0.05300
C1469       C  0.47836883  0.51265850  0.02675516    -0.31700
O1470       O  0.46389289  0.51285761  0.97863491    -0.23500
C1471       C  0.47767923  0.49562500  0.97027530    -0.03500
C1472       C  0.49542628  0.47565618  0.97661506    -0.18000
H1473       H  0.52437695  0.45533375  0.99997176     0.20000
H1474       H  0.44976508  0.53334445  0.00341303     0.18400
H1475       H  0.46472758  0.52892936  0.03114926     0.18300
H1476       H  0.51037004  0.46068565  0.97219742     0.14200
C1477       C  0.54886755  0.83416752  0.09078222     0.29700
C1478       C  0.56397414  0.81231528  0.08412854    -0.36700
C1479       C  0.55588049  0.77555142  0.08999646     0.15600
C1480       C  0.53405319  0.76090858  0.10156253     0.21500
C1481       C  0.51895771  0.78293129  0.10826458    -0.34800
C1482       C  0.52734307  0.82002338  0.10242633     0.15600
O1483       O  0.55275381  0.86907300  0.08692868    -0.26800
C1484       C  0.53354744  0.87764675  0.09619577     0.05300
C1485       C  0.51713633  0.84828103  0.10614167    -0.31700
O1486       O  0.52915931  0.72508958  0.10501375    -0.23500
C1487       C  0.54834189  0.71700212  0.09554922    -0.03500
C1488       C  0.56564983  0.74745484  0.08600121    -0.18000
H1489       H  0.58072253  0.82315693  0.07496789     0.20000
H1490       H  0.50170499  0.77182917  0.11732255     0.18400
H1491       H  0.50001023  0.84772296  0.11474021     0.18300
H1492       H  0.58215844  0.74825298  0.07720470     0.14200
C1493       C  0.51892796  0.31675324  0.09156943     0.29700
C1494       C  0.50651964  0.28077029  0.09873521    -0.36700
C1495       C  0.51656838  0.25323000  0.09324297     0.15600
C1496       C  0.53746968  0.26046365  0.08149786     0.21500
C1497       C  0.54977694  0.29657318  0.07426610    -0.34800
C1498       C  0.53962563  0.32424789  0.07976867     0.15600
O1499       O  0.51375553  0.34704341  0.09518444    -0.26800
C1500       C  0.53122942  0.37450348  0.08560486     0.05300
C1501       C  0.54776424  0.36199753  0.07567093    -0.31700
O1502       O  0.54418247  0.23056125  0.07837799    -0.23500
C1503       C  0.52723862  0.20393693  0.08826164    -0.03500
C1504       C  0.50961828  0.21653324  0.09776713    -0.18000
H1505       H  0.49054270  0.27488374  0.10804057     0.20000
H1506       H  0.56643105  0.30282217  0.06508962     0.18400
H1507       H  0.56421363  0.37865162  0.06694750     0.18300
H1508       H  0.49422680  0.20102117  0.10677241     0.14200
C1509       C  0.98541594  0.88299778  0.25515080     0.29700
C1510       C  0.96075602  0.89457718  0.26210164    -0.36700
C1511       C  0.92283479  0.88353000  0.25633708     0.15600
C1512       C  0.91023028  0.86245098  0.24460861     0.21500
C1513       C  0.93483816  0.85123778  0.23765946    -0.34800
C1514       C  0.97250767  0.86230388  0.24337026     0.15600
O1515       O  0.02198965  0.88989687  0.25860764    -0.26800
C1516       C  0.03235207  0.87337281  0.24885626     0.05300
C1517       C  0.00266617  0.85591144  0.23914248    -0.31700
O1518       O  0.87373583  0.85466996  0.24101883    -0.23500
C1519       C  0.86248563  0.87103041  0.25049996    -0.03500
C1520       C  0.89187903  0.88959970  0.26031457    -0.18000
H1521       H  0.97037909  0.91092458  0.27133325     0.20000
H1522       H  0.92519938  0.83487256  0.22842824     0.18400
H1523       H  0.00327958  0.84070543  0.23021080     0.18300
H1524       H  0.89054474  0.90510337  0.26906685     0.14200
C1525       C  0.48566508  0.87670625  0.24590372     0.29700
C1526       C  0.46396697  0.89164984  0.25271613    -0.36700
C1527       C  0.42712564  0.88351916  0.24704324     0.15600
C1528       C  0.41251333  0.86219804  0.23542854     0.21500
C1529       C  0.43437184  0.84718354  0.22857288    -0.34800
C1530       C  0.47139113  0.85523446  0.23429733     0.15600
O1531       O  0.52053406  0.88062029  0.24962215    -0.26800
C1532       C  0.52904448  0.86144450  0.24034515     0.05300
C1533       C  0.49954737  0.84488565  0.23049902    -0.31700
O1534       O  0.37673047  0.85739852  0.23213747    -0.23500
C1535       C  0.36856725  0.87591123  0.24178942    -0.03500
C1536       C  0.39890176  0.89273761  0.25131179    -0.18000
H1537       H  0.47492189  0.90816638  0.26188194     0.20000
H1538       H  0.42312851  0.83012765  0.21951725     0.18400
H1539       H  0.49889277  0.82773714  0.22191171     0.18300
H1540       H  0.39963327  0.90870971  0.26022105     0.14200
C1541       C  0.65908538  0.72604540  0.17898228     0.29700
C1542       C  0.67111214  0.70598655  0.16995610    -0.36700
C1543       C  0.64404261  0.68600885  0.15948347     0.15600
C1544       C  0.60785619  0.68598112  0.15807758     0.21500
C1545       C  0.59604545  0.70610418  0.16699249    -0.34800
C1546       C  0.62288952  0.72586503  0.17739462     0.15600
O1547       O  0.67918297  0.74636961  0.18958911    -0.26800
C1548       C  0.65537363  0.75923949  0.19476379     0.05300
C1549       C  0.62001864  0.74732021  0.18756943    -0.31700
O1550       O  0.58675926  0.66517322  0.14778981    -0.23500
C1551       C  0.60946947  0.65150129  0.14241262    -0.03500
C1552       C  0.64566242  0.66354338  0.14923343    -0.18000
H1553       H  0.69935397  0.70576076  0.17106242     0.20000
H1554       H  0.56767296  0.70610611  0.16593227     0.18400
H1555       H  0.59566541  0.75353848  0.18957341     0.18300
H1556       H  0.66940397  0.65662425  0.14700753     0.14200
C1557       C  0.20208952  0.15731053  0.24467183     0.29700
C1558       C  0.21600001  0.13509858  0.23766746    -0.36700
C1559       C  0.20820905  0.09842083  0.24343647     0.15600
C1560       C  0.18795022  0.08429092  0.25528823     0.21500
C1561       C  0.17392931  0.10666754  0.26234692    -0.34800
C1562       C  0.18190456  0.14370042  0.25656308     0.15600
O1563       O  0.20629887  0.19234682  0.24095578    -0.26800
C1564       C  0.18875198  0.20172686  0.25054329     0.05300
C1565       C  0.17291604  0.17262613  0.26058987    -0.31700
O1566       O  0.18361143  0.04869529  0.25867822    -0.23500
C1567       C  0.20146694  0.04028289  0.24886736    -0.03500
C1568       C  0.21728589  0.07017495  0.23912673    -0.18000
H1569       H  0.23177483  0.14570744  0.22833568     0.20000
H1570       H  0.15792273  0.09594478  0.27163459     0.18400
H1571       H  0.15717406  0.17276910  0.26946095     0.18300
H1572       H  0.23265148  0.07068246  0.23008053     0.14200
C1573       C  0.18712596  0.58745990  0.24766978     0.29700
C1574       C  0.17423433  0.61197423  0.25379693    -0.36700
C1575       C  0.18754991  0.65013989  0.24799926     0.15600
C1576       C  0.21208296  0.66365551  0.23694784     0.21500
C1577       C  0.22511028  0.63902458  0.23080035    -0.34800
C1578       C  0.21156511  0.60054694  0.23658605     0.15600
O1579       O  0.17783670  0.55055926  0.25144302    -0.26800
C1580       C  0.19640253  0.53954913  0.24267450     0.05300
C1581       C  0.21793872  0.56943804  0.23317250    -0.31700
O1582       O  0.22078612  0.70068122  0.23327068    -0.23500
C1583       C  0.20141042  0.71070026  0.24210404    -0.03500
C1584       C  0.18031325  0.68034918  0.25146977    -0.18000
H1585       H  0.15499315  0.60190180  0.26246824     0.20000
H1586       H  0.24427874  0.64905785  0.22211558     0.18400
H1587       H  0.23558884  0.56834284  0.22497882     0.18300
H1588       H  0.16230949  0.68058992  0.25969922     0.14200
C1589       C  0.89901558  0.09265382  0.24788447     0.29700
C1590       C  0.92134293  0.13014744  0.24140776    -0.36700
C1591       C  0.95946524  0.15694421  0.24678080     0.15600
C1592       C  0.97478691  0.14774393  0.25781792     0.21500
C1593       C  0.95220323  0.11008082  0.26438071    -0.34800
C1594       C  0.91386918  0.08305164  0.25895936     0.15600
O1595       O  0.86338864  0.06274448  0.24415446    -0.26800
C1596       C  0.85490112  0.03335571  0.25292850     0.05300
C1597       C  0.88516687  0.04421028  0.26243859    -0.31700
O1598       O  0.01194788  0.17710245  0.26078290    -0.23500
C1599       C  0.02030175  0.20529577  0.25149244    -0.03500
C1600       C  0.98863912  0.19428011  0.24256216    -0.18000
H1601       H  0.91006176  0.13760008  0.23261731     0.20000
H1602       H  0.96396918  0.10213583  0.27294077     0.18400
H1603       H  0.88628387  0.02587451  0.27048244     0.18300
H1604       H  0.98765146  0.21100657  0.23400237     0.14200
C1605       C  0.40481248  0.58410089  0.23460206     0.29700
C1606       C  0.42965516  0.62143988  0.22812738    -0.36700
C1607       C  0.46847246  0.64608223  0.23364449     0.15600
C1608       C  0.48168869  0.63456199  0.24470482     0.21500
C1609       C  0.45715119  0.59735538  0.25104871    -0.34800
C1610       C  0.41861108  0.57298548  0.24560096     0.15600
O1611       O  0.36697435  0.55664277  0.23152675    -0.26800
C1612       C  0.35684212  0.52776736  0.24069230     0.05300
C1613       C  0.38783903  0.53648136  0.24967365    -0.31700
O1614       O  0.51804555  0.66259100  0.24861540    -0.23500
C1615       C  0.52865559  0.69270836  0.23998529    -0.03500
C1616       C  0.49909761  0.68417581  0.23036651    -0.18000
H1617       H  0.41923019  0.63090825  0.21957940     0.20000
H1618       H  0.46715531  0.58837408  0.25981078     0.18400
H1619       H  0.38751450  0.51870596  0.25812843     0.18300
H1620       H  0.49964694  0.70361823  0.22240392     0.14200
C1621       C  0.01386088  0.57363538  0.98938931     0.29700
C1622       C  0.98675283  0.56020348  0.00007508    -0.36700
C1623       C  0.00450549  0.56716012  0.01260564     0.15600
C1624       C  0.04610094  0.58678801  0.01441602     0.21500
C1625       C  0.07317727  0.59987922  0.00373207    -0.34800
C1626       C  0.05539703  0.59219191  0.99120039     0.15600
O1627       O  0.00367301  0.56817772  0.97687152    -0.26800
C1628       C  0.03897308  0.58294056  0.97056685     0.05300
C1629       C  0.07236487  0.59827262  0.97895471    -0.31700
O1630       O  0.05619225  0.58943038  0.02691393    -0.23500
C1631       C  0.02073161  0.57087155  0.03320776    -0.03500
C1632       C  0.98732322  0.55612654  0.02483643    -0.18000
H1633       H  0.95411641  0.54444481  0.99868807     0.20000
H1634       H  0.10573361  0.61406510  0.00510882     0.18400
H1635       H  0.10410488  0.61075479  0.97642761     0.18300
H1636       H  0.95534788  0.53933256  0.02736984     0.14200
C1637       C  0.26170630  0.54589741  0.10243721     0.29700
C1638       C  0.29958787  0.56284574  0.10893111    -0.36700
C1639       C  0.32718826  0.55158190  0.10400777     0.15600
C1640       C  0.31768389  0.52524588  0.09353120     0.21500
C1641       C  0.28005418  0.50832130  0.08713622    -0.34800
C1642       C  0.25284932  0.51980743  0.09193389     0.15600
O1643       O  0.23168357  0.55296809  0.10501357    -0.26800
C1644       C  0.20350234  0.53116278  0.09599349     0.05300
C1645       C  0.21516846  0.51001312  0.08760540    -0.31700
O1646       O  0.34791768  0.51977933  0.09012338    -0.23500
C1647       C  0.37759694  0.54281950  0.09845231    -0.03500
C1648       C  0.36654581  0.56341641  0.10740032    -0.18000
H1649       H  0.30724823  0.58385738  0.11705027     0.20000
H1650       H  0.27282354  0.48819026  0.07878414     0.18400
H1651       H  0.19846038  0.49057717  0.07940818     0.18300
H1652       H  0.38505506  0.58472495  0.11497176     0.14200
C1653       C  0.81767236  0.53301676  0.08023145     0.29700
C1654       C  0.77965137  0.51834637  0.07402674    -0.36700
C1655       C  0.75330161  0.52995900  0.07977522     0.15600
C1656       C  0.76378371  0.55412769  0.09086254     0.21500
C1657       C  0.80168523  0.56902096  0.09694387    -0.34800
C1658       C  0.82788408  0.55762865  0.09119646     0.15600
O1659       O  0.84655549  0.52487059  0.07695176    -0.26800
C1660       C  0.87548724  0.54473581  0.08594291     0.05300
C1661       C  0.86547405  0.56577404  0.09496735    -0.31700
O1662       O  0.73464892  0.56070736  0.09481870    -0.23500
C1663       C  0.70487920  0.54075385  0.08616463    -0.03500
C1664       C  0.71471464  0.52102887  0.07651596    -0.18000
H1665       H  0.77104002  0.49888337  0.06545381     0.20000
H1666       H  0.80999658  0.58784385  0.10567027     0.18400
H1667       H  0.88290960  0.58351015  0.10336436     0.18300
H1668       H  0.69613532  0.50270579  0.06838857     0.14200
C1669       C  0.24168532  0.75789491  0.09144727     0.29700
C1670       C  0.26242813  0.79607208  0.08532913    -0.36700
C1671       C  0.30101015  0.82278972  0.09034773     0.15600
C1672       C  0.31820977  0.81278234  0.10068626     0.21500
C1673       C  0.29727647  0.77446298  0.10688192    -0.34800
C1674       C  0.25843977  0.74760983  0.10185527     0.15600
O1675       O  0.20574935  0.72804074  0.08801262    -0.26800
C1676       C  0.19908831  0.69811505  0.09631809     0.05300
C1677       C  0.23072556  0.70847136  0.10523449    -0.31700
O1678       O  0.35511090  0.84249892  0.10355420    -0.23500
C1679       C  0.36132945  0.87169106  0.09492134    -0.03500
C1680       C  0.32867936  0.86109441  0.08649313    -0.18000
H1681       H  0.24953702  0.80419926  0.07711687     0.20000
H1682       H  0.31046183  0.76606752  0.11493647     0.18400
H1683       H  0.23328003  0.68967991  0.11283408     0.18300
H1684       H  0.32592079  0.87893162  0.07859560     0.14200
C1685       C  0.74653046  0.25902377  0.08201666     0.29700
C1686       C  0.77005782  0.29731957  0.07597353    -0.36700
C1687       C  0.80863344  0.32258581  0.08153021     0.15600
C1688       C  0.82277929  0.31102071  0.09234221     0.21500
C1689       C  0.79944148  0.27282896  0.09831846    -0.34800
C1690       C  0.76122392  0.24759376  0.09271331     0.15600
O1691       O  0.70920501  0.23080078  0.07873389    -0.26800
C1692       C  0.70018322  0.20105889  0.08746110     0.05300
C1693       C  0.73154337  0.20985345  0.09631708    -0.31700
O1694       O  0.85928891  0.33939476  0.09608188    -0.23500
C1695       C  0.86904817  0.36961975  0.08752383    -0.03500
C1696       C  0.83869292  0.36088721  0.07820736    -0.18000
H1697       H  0.75899993  0.30683066  0.06760088     0.20000
H1698       H  0.81024886  0.26351571  0.10680924     0.18400
H1699       H  0.73200122  0.19140900  0.10444714     0.18300
H1700       H  0.83866851  0.38007093  0.07025441     0.14200
C1701       C  0.07305641  0.44045771  0.16035595     0.29700
C1702       C  0.05964188  0.41145627  0.17056026    -0.36700
C1703       C  0.08868226  0.41754559  0.18020838     0.15600
C1704       C  0.12800752  0.45003093  0.17984238     0.21500
C1705       C  0.14129542  0.47906768  0.16972334    -0.34800
C1706       C  0.11241846  0.47287516  0.16008956     0.15600
O1707       O  0.05152895  0.44041621  0.15011963    -0.26800
C1708       C  0.07760723  0.47324567  0.14329907     0.05300
C1709       C  0.11586089  0.49459216  0.14904305    -0.31700
O1710       O  0.15037459  0.44946634  0.18966104    -0.23500
C1711       C  0.12519618  0.41617659  0.19642099    -0.03500
C1712       C  0.08630287  0.39504488  0.19104208    -0.18000
H1713       H  0.02897617  0.38575124  0.17086253     0.20000
H1714       H  0.17214995  0.50442752  0.16930313     0.18400
H1715       H  0.14242048  0.52197621  0.14552010     0.18300
H1716       H  0.06036032  0.36706958  0.19451641     0.14200
C1717       C  0.90640559  0.72758593  0.67955234     0.29700
C1718       C  0.91897971  0.74767392  0.66734048    -0.36700
C1719       C  0.90602282  0.72269100  0.65613798     0.15600
C1720       C  0.88181993  0.68085953  0.65681522     0.21500
C1721       C  0.87001640  0.66069917  0.66903019    -0.34800
C1722       C  0.88348700  0.68563461  0.68022924     0.15600
O1723       O  0.91386907  0.74486952  0.69131036    -0.26800
C1724       C  0.89613591  0.71338228  0.69959040     0.05300
C1725       C  0.87695931  0.67592723  0.69323407    -0.31700
O1726       O  0.87139998  0.66381059  0.64504075    -0.23500
C1727       C  0.88982399  0.69516324  0.63673119    -0.03500
C1728       C  0.91189005  0.73241430  0.64310585    -0.18000
H1729       H  0.93714831  0.78049507  0.66660457     0.20000
H1730       H  0.85122392  0.62792793  0.66976110     0.18400
H1731       H  0.85973755  0.64587151  0.69760301     0.18300
H1732       H  0.92867833  0.76250001  0.63873426     0.14200
C1733       C  0.70518972  0.92165535  0.34798811     0.29700
C1734       C  0.73370237  0.93537901  0.33768269    -0.36700
C1735       C  0.71760143  0.92544669  0.32491822     0.15600
C1736       C  0.67627155  0.90415989  0.32254478     0.21500
C1737       C  0.64779384  0.89001069  0.33284964    -0.34800
C1738       C  0.66390163  0.89927085  0.34561622     0.15600
O1739       O  0.71364282  0.92644418  0.36064697    -0.26800
C1740       C  0.67744654  0.90652378  0.36648861     0.05300
C1741       C  0.64522657  0.88869161  0.35764408    -0.31700
O1742       O  0.66778369  0.89771684  0.30992656    -0.23500
C1743       C  0.70400620  0.91464254  0.30410066    -0.03500
C1744       C  0.73631903  0.93227754  0.31292625    -0.18000
H1745       H  0.76613116  0.95196044  0.33951754     0.20000
H1746       H  0.61539744  0.87236475  0.33103006     0.18400
H1747       H  0.61306882  0.87022971  0.35976213     0.18300
H1748       H  0.76857268  0.94719217  0.31083900     0.14200
C1749       C  0.78788413  0.78535916  0.51244754     0.29700
C1750       C  0.79819724  0.81686223  0.50329035    -0.36700
C1751       C  0.76982431  0.80898594  0.49323985     0.15600
C1752       C  0.73365788  0.77263376  0.49220082     0.21500
C1753       C  0.72322749  0.74105764  0.50143758    -0.34800
C1754       C  0.75168849  0.74896368  0.51154193     0.15600
O1755       O  0.81033762  0.78617002  0.52250192    -0.26800
C1756       C  0.78834873  0.74985143  0.52818373     0.05300
C1757       C  0.75142540  0.72539127  0.52182664    -0.31700
O1758       O  0.71177490  0.77209713  0.48192754    -0.23500
C1759       C  0.73433730  0.80866630  0.47637099    -0.03500
C1760       C  0.77072510  0.83274458  0.48301588    -0.18000
H1761       H  0.82649076  0.84551294  0.50393041     0.20000
H1762       H  0.69501037  0.71235337  0.50077868     0.18400
H1763       H  0.72808684  0.69468863  0.52434469     0.18300
H1764       H  0.79442316  0.86343856  0.48065154     0.14200
C1765       C  0.34571429  0.23475674  0.65562599     0.29700
C1766       C  0.31735992  0.22166554  0.66595150    -0.36700
C1767       C  0.33351929  0.22890287  0.67871273     0.15600
C1768       C  0.37482656  0.24837405  0.68109613     0.21500
C1769       C  0.40320952  0.26078702  0.67075906    -0.34800
C1770       C  0.38697005  0.25291805  0.65796854     0.15600
O1771       O  0.33702719  0.23060054  0.64298429    -0.26800
C1772       C  0.37298810  0.24573152  0.63707582     0.05300
C1773       C  0.40535574  0.25990007  0.64589335    -0.31700
O1774       O  0.38324487  0.25238141  0.69377245    -0.23500
C1775       C  0.34692308  0.23479097  0.69957239    -0.03500
C1776       C  0.31473072  0.21930891  0.69071467    -0.18000
H1777       H  0.28494228  0.20659971  0.66414287     0.20000
H1778       H  0.43558945  0.27525079  0.67257690     0.18400
H1779       H  0.43742753  0.27315356  0.64373235     0.18300
H1780       H  0.28245199  0.20335324  0.69281488     0.14200
C1781       C  0.13404592  0.98716461  0.56833626     0.29700
C1782       C  0.09679099  0.96503016  0.56166930    -0.36700
C1783       C  0.06899639  0.92715256  0.56722952     0.15600
C1784       C  0.07743731  0.91230087  0.57855536     0.21500
C1785       C  0.11449599  0.93431398  0.58520080    -0.34800
C1786       C  0.14216566  0.97197814  0.57964340     0.15600
O1787       O  0.16437716  0.02344907  0.56502770    -0.26800
C1788       C  0.19217952  0.03133786  0.57433208     0.05300
C1789       C  0.17993529  0.00034455  0.58366453    -0.31700
O1790       O  0.04719037  0.87664722  0.58216447    -0.23500
C1791       C  0.01881202  0.86833468  0.57307617    -0.03500
C1792       C  0.03060665  0.89861617  0.56348402    -0.18000
H1793       H  0.08990204  0.97659606  0.55282895     0.20000
H1794       H  0.12120255  0.92292149  0.59412278     0.18400
H1795       H  0.19630758  0.99917079  0.59227233     0.18300
H1796       H  0.01335033  0.89958680  0.55510358     0.14200
C1797       C  0.56483816  0.43160302  0.57974391     0.29700
C1798       C  0.58819104  0.46922689  0.57344895    -0.36700
C1799       C  0.62634244  0.49497655  0.57899116     0.15600
C1800       C  0.64084685  0.48478291  0.59002178     0.21500
C1801       C  0.61721725  0.44703888  0.59641812    -0.34800
C1802       C  0.57884564  0.42102295  0.59081832     0.15600
O1803       O  0.52900205  0.40239474  0.57582088    -0.26800
C1804       C  0.51956480  0.37247815  0.58447159     0.05300
C1805       C  0.54940038  0.38233687  0.59408215    -0.31700
O1806       O  0.67832002  0.51325570  0.59310762    -0.23500
C1807       C  0.68760253  0.54180540  0.58388006    -0.03500
C1808       C  0.65629664  0.53196824  0.57491156    -0.18000
H1809       H  0.57768140  0.47751298  0.56465134     0.20000
H1810       H  0.62826396  0.43824360  0.60496708     0.18400
H1811       H  0.54978583  0.36340783  0.60205795     0.18300
H1812       H  0.65604706  0.54923902  0.56639415     0.14200
C1813       C  0.16513820  0.82319767  0.34626828     0.29700
C1814       C  0.17289243  0.80999960  0.33431439    -0.36700
C1815       C  0.16119442  0.82249005  0.32286727     0.15600
C1816       C  0.14392746  0.84703199  0.32308485     0.21500
C1817       C  0.13548877  0.85958341  0.33503273    -0.34800
C1818       C  0.14638339  0.84638378  0.34647591     0.15600
O1819       O  0.17440942  0.81607778  0.35819800    -0.26800
C1820       C  0.16062463  0.83435114  0.36608894     0.05300
C1821       C  0.14277872  0.85345245  0.35933623    -0.31700
O1822       O  0.13790890  0.85721141  0.31115844    -0.23500
C1823       C  0.15078933  0.83824034  0.30323201    -0.03500
C1824       C  0.16529498  0.81598768  0.30997456    -0.18000
H1825       H  0.18739050  0.79167221  0.33394745     0.20000
H1826       H  0.12183376  0.87868112  0.33538840     0.18400
H1827       H  0.12996211  0.87096967  0.36335339     0.18300
H1828       H  0.17869675  0.79903582  0.30593336     0.14200
C1829       C  0.97968629  0.88595969  0.43447945     0.29700
C1830       C  0.95532389  0.89915725  0.44068169    -0.36700
C1831       C  0.91655982  0.88498670  0.43518797     0.15600
C1832       C  0.90281653  0.85963990  0.42436227     0.21500
C1833       C  0.92699759  0.84638657  0.41821475    -0.34800
C1834       C  0.96558273  0.86052662  0.42368430     0.15600
O1835       O  0.01726665  0.89589229  0.43772370    -0.26800
C1836       C  0.02707333  0.87649934  0.42884243     0.05300
C1837       C  0.99602303  0.85404536  0.41991765    -0.31700
O1838       O  0.86601807  0.85065860  0.42069053    -0.23500
C1839       C  0.85587598  0.87040220  0.42927433    -0.03500
C1840       C  0.88609120  0.89227391  0.43854791    -0.18000
H1841       H  0.96593085  0.91929029  0.44910018     0.20000
H1842       H  0.91659466  0.82671505  0.40967827     0.18400
H1843       H  0.99607706  0.83587537  0.41172747     0.18300
H1844       H  0.88579069  0.91111813  0.44647440     0.14200
C1845       C  0.47782491  0.88591686  0.42610124     0.29700
C1846       C  0.45308983  0.89652615  0.43324903    -0.36700
C1847       C  0.41516631  0.88509994  0.42768550     0.15600
C1848       C  0.40222922  0.86469899  0.41585351     0.21500
C1849       C  0.42706609  0.85388918  0.40867997    -0.34800
C1850       C  0.46521124  0.86529163  0.41429182     0.15600
O1851       O  0.51407712  0.89307015  0.42971072    -0.26800
C1852       C  0.52514241  0.87681853  0.42014848     0.05300
C1853       C  0.49596776  0.85907561  0.41023506    -0.31700
O1854       O  0.36552261  0.85749659  0.41251715    -0.23500
C1855       C  0.35509061  0.87353722  0.42238374    -0.03500
C1856       C  0.38480822  0.89093790  0.43208512    -0.18000
H1857       H  0.46271178  0.91246548  0.44255440     0.20000
H1858       H  0.41732488  0.83768197  0.39942611     0.18400
H1859       H  0.49698175  0.84332718  0.40149932     0.18300
H1860       H  0.38422308  0.90602035  0.44105047     0.14200
C1861       C  0.25343545  0.01906112  0.49148681     0.29700
C1862       C  0.24507082  0.04284327  0.50001733    -0.36700
C1863       C  0.27380650  0.06306143  0.50995879     0.15600
C1864       C  0.30838490  0.06009275  0.51146908     0.21500
C1865       C  0.31672408  0.03622332  0.50293400    -0.34800
C1866       C  0.28800079  0.01604300  0.49294431     0.15600
O1867       O  0.23091236  0.99794131  0.48141790    -0.26800
C1868       C  0.25128628  0.98116827  0.47633066     0.05300
C1869       C  0.28706185  0.99135033  0.48309594    -0.31700
O1870       O  0.33072463  0.08116703  0.52160619    -0.23500
C1871       C  0.31006667  0.09772601  0.52662332    -0.03500
C1872       C  0.27449069  0.08759640  0.51975118    -0.18000
H1873       H  0.21806579  0.04541712  0.49897232     0.20000
H1874       H  0.34366522  0.03356149  0.50400906     0.18400
H1875       H  0.30922514  0.98215153  0.48099250     0.18300
H1876       H  0.25208722  0.09652590  0.52181168     0.14200
C1877       C  0.21979850  0.34633906  0.32502273     0.29700
C1878       C  0.21308059  0.32791713  0.33752177    -0.36700
C1879       C  0.22426672  0.35428322  0.34837112     0.15600
C1880       C  0.23994389  0.39577252  0.34712501     0.21500
C1881       C  0.24702915  0.41420447  0.33464513    -0.34800
C1882       C  0.23687036  0.38801704  0.32380361     0.15600
O1883       O  0.21132289  0.32772744  0.31345573    -0.26800
C1884       C  0.22406094  0.35818901  0.30477353     0.05300
C1885       C  0.24026121  0.39618166  0.31068616    -0.31700
O1886       O  0.24662696  0.41429207  0.35864866    -0.23500
C1887       C  0.23589613  0.38425896  0.36736403    -0.03500
C1888       C  0.22188453  0.34642068  0.36150800    -0.18000
H1889       H  0.20010623  0.29537185  0.33872206     0.20000
H1890       H  0.25961968  0.44669822  0.33345302     0.18400
H1891       H  0.25182761  0.42558581  0.30594002     0.18300
H1892       H  0.21021584  0.31705934  0.36629207     0.14200
C1893       C  0.18778840  0.15749413  0.43716147     0.29700
C1894       C  0.17280741  0.11885849  0.44296270    -0.36700
C1895       C  0.18686183  0.09424730  0.43747539     0.15600
C1896       C  0.21389601  0.10688195  0.42705112     0.21500
C1897       C  0.22924154  0.14555770  0.42138063    -0.34800
C1898       C  0.21511563  0.17000086  0.42682491     0.15600
O1899       O  0.17689075  0.18459918  0.44010405    -0.26800
C1900       C  0.19762742  0.21475111  0.43152404     0.05300
C1901       C  0.22205275  0.20732293  0.42311030    -0.31700
O1902       O  0.22158937  0.07846940  0.42306581    -0.23500
C1903       C  0.19927625  0.04713518  0.43103528    -0.03500
C1904       C  0.17710038  0.05519055  0.44024279    -0.18000
H1905       H  0.15090380  0.10830353  0.45093477     0.20000
H1906       H  0.24991387  0.15549021  0.41306492     0.18400
H1907       H  0.24101477  0.22610456  0.41506814     0.18300
H1908       H  0.15619967  0.03493970  0.44766619     0.14200
C1909       C  0.16494349  0.64427388  0.42234731     0.29700
C1910       C  0.14938726  0.60624720  0.42850475    -0.36700
C1911       C  0.16202070  0.58035013  0.42329809     0.15600
C1912       C  0.18784460  0.59067475  0.41261179     0.21500
C1913       C  0.20307909  0.62876165  0.40628226    -0.34800
C1914       C  0.19080135  0.65510766  0.41164509     0.15600
O1915       O  0.15882029  0.67379796  0.42622943    -0.26800
C1916       C  0.18092359  0.70430675  0.41795846     0.05300
C1917       C  0.20154298  0.69447534  0.40861053    -0.31700
O1918       O  0.19730309  0.56229573  0.40994058    -0.23500
C1919       C  0.17729467  0.53371140  0.41909820    -0.03500
C1920       C  0.15481342  0.54340272  0.42760981    -0.18000
H1921       H  0.12982399  0.59795437  0.43707655     0.20000
H1922       H  0.22402503  0.63771645  0.39806366     0.18400
H1923       H  0.22219066  0.71379523  0.40097450     0.18300
H1924       H  0.13674791  0.52621939  0.43603185     0.14200
C1925       C  0.47421510  0.65235740  0.42748929     0.29700
C1926       C  0.44831326  0.61715503  0.43465260    -0.36700
C1927       C  0.41224031  0.58947245  0.42831980     0.15600
C1928       C  0.40209993  0.59561011  0.41575427     0.21500
C1929       C  0.42818342  0.63100681  0.40854318    -0.34800
C1930       C  0.46438399  0.65900050  0.41493618     0.15600
O1931       O  0.50928937  0.68230056  0.43164327    -0.26800
C1932       C  0.52232068  0.70874966  0.42167226     0.05300
C1933       C  0.49560575  0.69596305  0.41098464    -0.31700
O1934       O  0.36642190  0.56543020  0.41187205    -0.23500
C1935       C  0.35385234  0.53985836  0.42213329    -0.03500
C1936       C  0.38119069  0.55340287  0.43260441    -0.18000
H1937       H  0.45568271  0.61182146  0.44452674     0.20000
H1938       H  0.42069577  0.63645436  0.39870430     0.18400
H1939       H  0.49875084  0.71160467  0.40170866     0.18300
H1940       H  0.37844411  0.53878869  0.44206580     0.14200
C1941       C  0.90698528  0.08528685  0.43526128     0.29700
C1942       C  0.94461243  0.10912253  0.44148952    -0.36700
C1943       C  0.97010776  0.14737963  0.43577049     0.15600
C1944       C  0.95920392  0.16128082  0.42473513     0.21500
C1945       C  0.92159073  0.13761905  0.41854505    -0.34800
C1946       C  0.89628368  0.09937805  0.42422400     0.15600
O1947       O  0.87910702  0.04783735  0.43856105    -0.26800
C1948       C  0.85033896  0.03798720  0.42948553     0.05300
C1949       C  0.85938917  0.06894499  0.42035806    -0.31700
O1950       O  0.98800175  0.19748700  0.42086335    -0.23500
C1951       C  0.01778405  0.20697093  0.42951827    -0.03500
C1952       C  0.00840542  0.17696686  0.43903514    -0.18000
H1953       H  0.95367253  0.09831398  0.45003788     0.20000
H1954       H  0.91296906  0.14799368  0.40978376     0.18400
H1955       H  0.84175645  0.06861903  0.41188682     0.18300
H1956       H  0.02725020  0.17676785  0.44704170     0.14200
C1957       C  0.82439267  0.15315154  0.65521691     0.29700
C1958       C  0.83805797  0.13916955  0.66586761    -0.36700
C1959       C  0.82912998  0.14743846  0.67852053     0.15600
C1960       C  0.80734663  0.16715563  0.68045330     0.21500
C1961       C  0.79380286  0.18116796  0.66982860    -0.34800
C1962       C  0.80362528  0.17386466  0.65721929     0.15600
O1963       O  0.83090967  0.15034820  0.64260832    -0.26800
C1964       C  0.81461798  0.16997265  0.63647278     0.05300
C1965       C  0.79735550  0.18547336  0.64506528    -0.31700
O1966       O  0.80345891  0.17298692  0.69300962    -0.23500
C1967       C  0.82337005  0.15734515  0.69929431    -0.03500
C1968       C  0.84014280  0.14098702  0.69078989    -0.18000
H1969       H  0.85542736  0.12398645  0.66438455     0.20000
H1970       H  0.77778964  0.19772795  0.67131699     0.18400
H1971       H  0.78266356  0.20289742  0.64270460     0.18300
H1972       H  0.85846349  0.12735180  0.69325906     0.14200
C1973       C  0.85633888  0.48599409  0.58947161     0.29700
C1974       C  0.84439816  0.44923472  0.59627650    -0.36700
C1975       C  0.85516243  0.42253199  0.59031972     0.15600
C1976       C  0.87618738  0.43159819  0.57853423     0.21500
C1977       C  0.88839850  0.46825528  0.57186096    -0.34800
C1978       C  0.87770524  0.49471461  0.57777150     0.15600
O1979       O  0.84806605  0.51476606  0.59277315    -0.26800
C1980       C  0.86448318  0.54199089  0.58301774     0.05300
C1981       C  0.88347763  0.53109098  0.57350354    -0.31700
O1982       O  0.88196535  0.40210398  0.57442914    -0.23500
C1983       C  0.86462214  0.37353984  0.58368054    -0.03500
C1984       C  0.84743891  0.38449338  0.59386771    -0.18000
H1985       H  0.82729837  0.44165906  0.60539624     0.20000
H1986       H  0.90447622  0.47532440  0.56254528     0.18400
H1987       H  0.89844562  0.54718910  0.56452160     0.18300
H1988       H  0.83103222  0.36674069  0.60244005     0.14200
C1989       C  0.84165537  0.98183986  0.57753893     0.29700
C1990       C  0.82630602  0.94428681  0.58400738    -0.36700
C1991       C  0.83805187  0.91770589  0.57879414     0.15600
C1992       C  0.86290292  0.92708858  0.56787746     0.21500
C1993       C  0.87809086  0.96469859  0.56132800    -0.34800
C1994       C  0.86660708  0.99159291  0.56663116     0.15600
O1995       O  0.83597725  0.01181762  0.58117831    -0.26800
C1996       C  0.85755291  0.04138870  0.57253698     0.05300
C1997       C  0.87725016  0.03056018  0.56320015    -0.31700
O1998       O  0.87081490  0.89788066  0.56496957    -0.23500
C1999       C  0.85076219  0.86963882  0.57417752    -0.03500
C2000       C  0.82988102  0.88038668  0.58302403    -0.18000
H2001       H  0.80724550  0.93668557  0.59268624     0.20000
H2002       H  0.89809924  0.97273983  0.55288228     0.18400
H2003       H  0.89721264  0.04899503  0.55529296     0.18300
H2004       H  0.81181603  0.86339308  0.59147219     0.14200
C2005       C  0.64600924  0.21383546  0.58637275     0.29700
C2006       C  0.62231524  0.22762830  0.59270177    -0.36700
C2007       C  0.58441711  0.21597193  0.58688997     0.15600
C2008       C  0.57096401  0.19254276  0.57562812     0.21500
C2009       C  0.59456337  0.17886998  0.56932173    -0.34800
C2010       C  0.63220988  0.19038967  0.57512816     0.15600
O2011       O  0.68247327  0.22101332  0.58999181    -0.26800
C2012       C  0.69184127  0.20179627  0.58091706     0.05300
C2013       C  0.66167875  0.18232304  0.57145236    -0.31700
O2014       O  0.53485081  0.18535942  0.57179822    -0.23500
C2015       C  0.52481086  0.20433978  0.58070592    -0.03500
C2016       C  0.55444797  0.22391821  0.59036782    -0.18000
H2017       H  0.63267266  0.24611809  0.60150265     0.20000
H2018       H  0.58429019  0.16054133  0.56048248     0.18400
H2019       H  0.66163635  0.16493747  0.56301078     0.18300
H2020       H  0.55401248  0.24153586  0.59866543     0.14200
C2021       C  0.14074343  0.19875861  0.56859903     0.29700
C2022       C  0.10385833  0.18702441  0.56206108    -0.36700
C2023       C  0.07844707  0.19951676  0.56791685     0.15600
C2024       C  0.08867705  0.22201048  0.57938540     0.21500
C2025       C  0.12558768  0.23402760  0.58583239    -0.34800
C2026       C  0.15087246  0.22156257  0.57999537     0.15600
O2027       O  0.16859902  0.18935996  0.56519339    -0.26800
C2028       C  0.19686341  0.20661309  0.57453125     0.05300
C2029       C  0.18740519  0.22709611  0.58394203    -0.31700
O2030       O  0.05998306  0.22927588  0.58338750    -0.23500
C2031       C  0.03088983  0.21125031  0.57437870    -0.03500
C2032       C  0.04072320  0.19234610  0.56447630    -0.18000
H2033       H  0.09528784  0.16891086  0.55317228     0.20000
H2034       H  0.13375248  0.25135848  0.59488766     0.18400
H2035       H  0.20461966  0.24302323  0.59261699     0.18300
H2036       H  0.02246019  0.17526950  0.55611478     0.14200
C2037       C  0.00392306  0.27463809  0.51178472     0.29700
C2038       C  0.02576731  0.26487357  0.50294858    -0.36700
C2039       C  0.04514591  0.29275512  0.49274536     0.15600
C2040       C  0.04333522  0.32801562  0.49124316     0.21500
C2041       C  0.02157493  0.33804183  0.50018818    -0.34800
C2042       C  0.00206786  0.30994948  0.51048292     0.15600
O2043       O  0.98320689  0.25233548  0.52193497    -0.26800
C2044       C  0.96780603  0.27346058  0.52730364     0.05300
C2045       C  0.97855110  0.30974415  0.52065050    -0.31700
O2046       O  0.06369825  0.34932347  0.48079992    -0.23500
C2047       C  0.07855440  0.32719811  0.47569088    -0.03500
C2048       C  0.06799326  0.29179226  0.48272035    -0.18000
H2049       H  0.02736463  0.23728019  0.50393036     0.20000
H2050       H  0.01983618  0.36555007  0.49916500     0.18400
H2051       H  0.97015404  0.33240151  0.52294572     0.18300
H2052       H  0.07592286  0.26862651  0.48069954     0.14200
loop_ 
_geom_bond_atom_site_label_1 
_geom_bond_atom_site_label_2 
_geom_bond_distance 
_geom_bond_site_symmetry_2 
_ccdc_geom_bond_type 
Zr1           O2   2.438       .  S
Zr1           O3   2.423       .  S
Zr1           O4   2.430       .  S
Zr1           O7   2.438       .  S
Zr1           O9   2.383       .  S
Zr1          O10   2.380       .  S
Zr1          O11   2.403       .  S
Zr1          O12   2.398       .  S
O2           H58   0.990       .  S
O2           H66   0.990       .  S
O3           C23   1.282       .  A
O4           C25   1.284       .  A
O5          Zr15   2.422       .  S
O5           C24   1.281       .  A
O6          Zr14   2.416       .  S
O6           C25   1.281       .  A
O7           C24   1.285       .  A
O8          Zr16   2.430       .  S
O8           C23   1.283       .  A
O9          Zr14   2.391       .  S
O9          Zr16   2.367       .  S
O10         Zr15   2.389       .  S
O10         Zr16   2.381       .  S
O10          H45   0.966       .  S
O11         Zr14   2.398       .  S
O11         Zr31   2.394       .  S
O11          H48   0.966       .  S
O12         Zr15   2.386       .  S
O12         Zr31   2.392       .  S
Zr13         O38   2.440       .  S
Zr13         O32   2.446       .  S
Zr13         O40   2.462       .  S
Zr13         O28   2.445       .  S
Zr13         O19   2.390       .  S
Zr13         O20   2.421       .  S
Zr13         O21   2.384       .  S
Zr13         O22   2.390       .  S
Zr14         O33   2.435       .  S
Zr14         O26   2.436       .  S
Zr14         O27   2.416       .  S
Zr14         O20   2.403       .  S
Zr14         O21   2.388       .  S
Zr15         O17   2.437       .  S
Zr15         O39   2.438       .  S
Zr15         O41   2.410       .  S
Zr15         O19   2.384       .  S
Zr15         O22   2.395       .  S
Zr16         O42   2.436       .  S
Zr16         O43   2.436       .  S
Zr16         O18   2.437       .  S
Zr16         O19   2.381       .  S
Zr16         O20   2.406       .  S
O17          H54   0.990       .  S
O18          H49   0.990   1_655  S
O18          H63   0.990   1_655  S
O20          H46   0.965       .  S
O21         Zr31   2.379       .  S
O22         Zr31   2.393       .  S
O22          H47   0.965       .  S
C23        C2031   1.468   1_655  S
C24        C1996   1.470       .  S
C25        C2044   1.461       .  S
O26          H62   0.990       .  S
O27          C29   1.281       .  A
O28          C29   1.284       .  A
C29        C1983   1.468       .  S
O30         Zr31   2.440       .  S
O30          H59   0.991       .  S
Zr31         O34   2.440       .  S
Zr31         O35   2.439       .  S
Zr31         O36   2.401       .  S
O32          C37   1.284       .  A
O33          H50   0.990       .  S
O33          H65   0.990       .  S
O34          H51   0.990       .  S
O35          H55   0.990       .  S
O35          H64   0.989       .  S
O36          C37   1.278       .  A
C37        C2012   1.468       .  S
O38          H57   0.990       .  S
O38          H61   0.990       .  S
O39          H53   0.990       .  S
O39          H60   0.990       .  S
O40          C44   1.289       .  A
O41          C44   1.279       .  A
O42          H52   0.990       .  S
O43          H56   0.990       .  S
C44        C1964   1.468       .  S
Zr67         O68   2.442       .  S
Zr67         O69   2.428       .  S
Zr67         O70   2.413       .  S
Zr67         O73   2.444       .  S
Zr67         O75   2.386       .  S
Zr67         O76   2.375       .  S
Zr67         O77   2.406       .  S
Zr67         O78   2.393       .  S
O68         H124   0.991       .  S
O68         H132   0.990       .  S
O69          C89   1.283       .  A
O70          C91   1.282       .  A
O71         Zr81   2.416       .  S
O71          C90   1.282       .  A
O72         Zr80   2.421       .  S
O72          C91   1.281       .  A
O73          C90   1.286       .  A
O74         Zr82   2.417       .  S
O74          C89   1.280       .  A
O75         Zr80   2.385       .  S
O75         Zr82   2.364       .  S
O76         Zr81   2.387       .  S
O76         Zr82   2.379       .  S
O76         H111   0.966       .  S
O77         Zr80   2.400       .  S
O77         Zr97   2.390       .  S
O77         H114   0.966       .  S
O78         Zr81   2.381       .  S
O78         Zr97   2.390       .  S
Zr79        O104   2.442       .  S
Zr79         O98   2.450       .  S
Zr79        O106   2.465       .  S
Zr79         O94   2.449       .  S
Zr79         O85   2.393       .  S
Zr79         O86   2.423       .  S
Zr79         O87   2.386       .  S
Zr79         O88   2.388       .  S
Zr80         O99   2.436       .  S
Zr80         O92   2.435       .  S
Zr80         O93   2.418       .  S
Zr80         O86   2.399       .  S
Zr80         O87   2.393       .  S
Zr81         O83   2.434       .  S
Zr81        O105   2.440       .  S
Zr81        O107   2.401       .  S
Zr81         O85   2.384       .  S
Zr81         O88   2.390       .  S
Zr82        O108   2.433       .  S
Zr82        O109   2.432       .  S
Zr82         O84   2.438       .  S
Zr82         O85   2.379       .  S
Zr82         O86   2.405       .  S
O83         H120   0.990       .  S
O84         H115   0.991       .  S
O84         H129   0.990       .  S
O86         H112   0.966       .  S
O87         Zr97   2.378       .  S
O88         Zr97   2.390       .  S
O88         H113   0.966       .  S
C89        C1951   1.464       .  S
C90        C1900   1.472       .  S
C91        C2047   1.459       .  S
O92         H128   0.990       .  S
O93          C95   1.282       .  A
O94          C95   1.284       .  A
C95        C1919   1.474       .  S
O96         Zr97   2.439       .  S
O96         H125   0.990       .  S
Zr97        O100   2.437       .  S
Zr97        O101   2.440       .  S
Zr97        O102   2.402       .  S
O98         C103   1.285       .  A
O99         H116   0.990       .  S
O99         H131   0.991       .  S
O100        H117   0.990       .  S
O101        H121   0.990       .  S
O101        H130   0.989       .  S
O102        C103   1.279       .  A
C103       C1935   1.471       .  S
O104        H123   0.991       .  S
O104        H127   0.991       .  S
O105        H119   0.990       .  S
O105        H126   0.990       .  S
O106        C110   1.289       .  A
O107        C110   1.279       .  A
O108        H118   0.990       .  S
O109        H122   0.990       .  S
C110       C1887   1.469       .  S
Zr133       O134   2.439       .  S
Zr133       O135   2.426       .  S
Zr133       O136   2.424       .  S
Zr133       O139   2.428       .  S
Zr133       O141   2.380       .  S
Zr133       O142   2.382       .  S
Zr133       O143   2.407       .  S
Zr133       O144   2.402       .  S
O134        H190   0.990       .  S
O134        H198   0.990       .  S
O135        C155   1.283   1_565  A
O136        C157   1.283       .  A
O137       Zr147   2.424       .  S
O137        C156   1.282       .  A
O138       Zr146   2.434       .  S
O138        C157   1.285       .  A
O139        C156   1.283       .  A
O140       Zr148   2.427   1_545  S
O140        C155   1.283       .  A
O141       Zr146   2.380       .  S
O141       Zr148   2.367       .  S
O142       Zr147   2.382       .  S
O142       Zr148   2.381       .  S
O142        H177   0.966       .  S
O143       Zr146   2.393       .  S
O143       Zr163   2.407       .  S
O143        H180   0.966       .  S
O144       Zr147   2.378       .  S
O144       Zr163   2.397       .  S
Zr145       O170   2.441       .  S
Zr145       O164   2.444       .  S
Zr145       O172   2.456       .  S
Zr145       O160   2.446       .  S
Zr145       O151   2.396       .  S
Zr145       O152   2.419       .  S
Zr145       O153   2.383       .  S
Zr145       O154   2.389       .  S
Zr146       O165   2.436       .  S
Zr146       O158   2.435       .  S
Zr146       O159   2.416       .  S
Zr146       O152   2.402       .  S
Zr146       O153   2.393       .  S
Zr147       O149   2.434       .  S
Zr147       O171   2.440       .  S
Zr147       O173   2.398       .  S
Zr147       O151   2.385       .  S
Zr147       O154   2.392       .  S
Zr148       O174   2.433       .  S
Zr148       O175   2.434       .  S
Zr148       O150   2.437   1_565  S
Zr148       O151   2.378       .  S
Zr148       O152   2.402       .  S
O149        H186   0.990       .  S
O150        H181   0.990       .  S
O150        H195   0.990       .  S
O152        H178   0.966       .  S
O153       Zr163   2.375       .  S
O154       Zr163   2.385       .  S
O154        H179   0.965       .  S
C155       C1903   1.467       .  S
C156       C1836   1.469       .  S
C157       C1868   1.468       .  S
O158        H194   0.990       .  S
O159        C161   1.282       .  A
O160        C161   1.284       .  A
C161       C1855   1.472       .  S
O162       Zr163   2.440       .  S
O162        H191   0.990       .  S
Zr163       O166   2.437       .  S
Zr163       O167   2.440       .  S
Zr163       O168   2.427       .  S
O164        C169   1.285       .  A
O165        H182   0.990       .  S
O165        H197   0.990       .  S
O166        H183   0.990       .  S
O167        H187   0.990       .  S
O167        H196   0.989       .  S
O168        C169   1.283       .  A
C169       C1916   1.476       .  S
O170        H189   0.990       .  S
O170        H193   0.990       .  S
O171        H185   0.990       .  S
O171        H192   0.990       .  S
O172        C176   1.287       .  A
O173        C176   1.278       .  A
O174        H184   0.990       .  S
O175        H188   0.990       .  S
C176       C1820   1.464       .  S
Zr199       O200   2.440       .  S
Zr199       O201   2.440       .  S
Zr199       O202   2.409       .  S
Zr199       O205   2.434       .  S
Zr199       O207   2.382       .  S
Zr199       O208   2.375       .  S
Zr199       O209   2.411       .  S
Zr199       O210   2.398       .  S
O200        H256   0.990       .  S
O200        H264   0.990       .  S
O201        C221   1.285       .  A
O202        C223   1.280       .  A
O203       Zr213   2.418       .  S
O203        C222   1.282       .  A
O204       Zr212   2.441       .  S
O204        C223   1.286       .  A
O205        C222   1.284       .  A
O206       Zr214   2.416       .  S
O206        C221   1.282       .  A
O207       Zr212   2.386       .  S
O207       Zr214   2.364       .  S
O208       Zr213   2.383       .  S
O208       Zr214   2.381       .  S
O208        H243   0.966       .  S
O209       Zr212   2.395       .  S
O209       Zr229   2.401       .  S
O209        H246   0.966       .  S
O210       Zr213   2.379       .  S
O210       Zr229   2.393       .  S
Zr211       O236   2.442       .  S
Zr211       O230   2.440       .  S
Zr211       O238   2.457       .  S
Zr211       O226   2.431       .  S
Zr211       O217   2.389       .  S
Zr211       O218   2.417       .  S
Zr211       O219   2.388       .  S
Zr211       O220   2.383       .  S
Zr212       O231   2.436       .  S
Zr212       O224   2.436       .  S
Zr212       O225   2.426       .  S
Zr212       O218   2.401       .  S
Zr212       O219   2.393       .  S
Zr213       O215   2.435       .  S
Zr213       O237   2.438       .  S
Zr213       O239   2.402       .  S
Zr213       O217   2.382       .  S
Zr213       O220   2.387       .  S
Zr214       O240   2.433       .  S
Zr214       O241   2.433       .  S
Zr214       O216   2.437       .  S
Zr214       O217   2.381       .  S
Zr214       O218   2.396       .  S
O215        H252   0.990       .  S
O216        H247   0.990       .  S
O216        H261   0.990       .  S
O218        H244   0.966       .  S
O219       Zr229   2.376       .  S
O220       Zr229   2.386       .  S
O220        H245   0.965       .  S
C221       C1788   1.469       .  S
C222       C2028   1.469       .  S
C223       C1871   1.465       .  S
O224        H260   0.990       .  S
O225        C227   1.283       .  A
O226        C227   1.282       .  A
C227       C2015   1.467       .  S
O228       Zr229   2.439       .  S
O228        H257   0.990       .  S
Zr229       O232   2.438       .  S
Zr229       O233   2.438       .  S
Zr229       O234   2.424       .  S
O230        C235   1.285       .  A
O231        H248   0.990       .  S
O231        H263   0.990       .  S
O232        H249   0.990       .  S
O233        H253   0.990       .  S
O233        H262   0.989       .  S
O234        C235   1.282       .  A
C235       C1804   1.472       .  S
O236        H255   0.991       .  S
O236        H259   0.990       .  S
O237        H251   0.990       .  S
O237        H258   0.990       .  S
O238        C242   1.288       .  A
O239        C242   1.279       .  A
O240        H250   0.990       .  S
O241        H254   0.990       .  S
C242       C1772   1.466       .  S
Zr265       O266   2.439       .  S
Zr265       O267   2.425       .  S
Zr265       O268   2.431       .  S
Zr265       O271   2.440       .  S
Zr265       O273   2.382       .  S
Zr265       O274   2.379       .  S
Zr265       O275   2.405       .  S
Zr265       O276   2.399       .  S
O266        H322   0.990       .  S
O266        H330   0.990       .  S
O267        C287   1.283       .  A
O268        C289   1.285       .  A
O269       Zr279   2.405       .  S
O269        C288   1.279       .  A
O270       Zr278   2.442       .  S
O270        C289   1.286       .  A
O271        C288   1.285       .  A
O272       Zr280   2.423       .  S
O272        C287   1.282       .  A
O273       Zr278   2.386       .  S
O273       Zr280   2.368       .  S
O274       Zr279   2.385       .  S
O274       Zr280   2.379       .  S
O274        H309   0.966       .  S
O275       Zr278   2.396       .  S
O275       Zr295   2.399       .  S
O275        H312   0.966       .  S
O276       Zr279   2.381       .  S
O276       Zr295   2.393       .  S
Zr277       O302   2.440       .  S
Zr277       O296   2.438       .  S
Zr277       O304   2.457       .  S
Zr277       O292   2.435       .  S
Zr277       O283   2.389       .  S
Zr277       O284   2.420       .  S
Zr277       O285   2.388       .  S
Zr277       O286   2.385       .  S
Zr278       O297   2.434       .  S
Zr278       O290   2.432       .  S
Zr278       O291   2.426       .  S
Zr278       O284   2.403       .  S
Zr278       O285   2.394       .  S
Zr279       O281   2.435       .  S
Zr279       O303   2.441       .  S
Zr279       O305   2.396       .  S
Zr279       O283   2.383       .  S
Zr279       O286   2.386       .  S
Zr280       O306   2.435       .  S
Zr280       O307   2.434       .  S
Zr280       O282   2.437       .  S
Zr280       O283   2.381       .  S
Zr280       O284   2.402       .  S
O281        H318   0.990   1_565  S
O282        H313   0.990       .  S
O282        H327   0.990       .  S
O284        H310   0.966       .  S
O285       Zr295   2.375       .  S
O286       Zr295   2.390       .  S
O286        H311   0.967       .  S
C287       C1839   1.465       .  S
C288       C1948   1.466   1_565  S
C289       C1759   1.477       .  S
O290        H326   0.989       .  S
O291        C293   1.283       .  A
O292        C293   1.283       .  A
C293       C1932   1.469       .  S
O294       Zr295   2.440       .  S
O294        H323   0.990       .  S
Zr295       O298   2.436       .  S
Zr295       O299   2.441       .  S
Zr295       O300   2.418       .  S
O296        C301   1.284       .  A
O297        H314   0.990       .  S
O297        H329   0.990       .  S
O298        H315   0.990       .  S
O299        H319   0.990       .  S
O299        H328   0.989       .  S
O300        C301   1.281       .  A
C301       C1852   1.469       .  S
O302        H321   0.990       .  S
O302        H325   0.990       .  S
O303        H317   0.990       .  S
O303        H324   0.990       .  S
O304        C308   1.288       .  A
O305        C308   1.277       .  A
O306        H316   0.990       .  S
O307        H320   0.990       .  S
C308       C1740   1.463       .  S
Zr331       O332   2.439       .  S
Zr331       O333   2.428       .  S
Zr331       O334   2.430       .  S
Zr331       O337   2.425       .  S
Zr331       O339   2.375       .  S
Zr331       O340   2.384       .  S
Zr331       O341   2.402       .  S
Zr331       O342   2.405       .  S
O332        H388   0.990       .  S
O332        H396   0.990       .  S
O333        C353   1.282       .  A
O334        C355   1.284       .  A
O335       Zr345   2.423       .  S
O335        C354   1.280       .  A
O336       Zr344   2.433       .  S
O336        C355   1.285       .  A
O337        C354   1.283       .  A
O338       Zr346   2.414       .  S
O338        C353   1.281       .  A
O339       Zr344   2.380       .  S
O339       Zr346   2.363       .  S
O340       Zr345   2.390       .  S
O340       Zr346   2.380       .  S
O340        H375   0.966       .  S
O341       Zr344   2.394       .  S
O341       Zr361   2.397       .  S
O341        H378   0.966       .  S
O342       Zr345   2.386       .  S
O342       Zr361   2.397       .  S
Zr343       O368   2.441       .  S
Zr343       O362   2.445       .  S
Zr343       O370   2.461       .  S
Zr343       O358   2.453       .  S
Zr343       O349   2.393       .  S
Zr343       O350   2.417       .  S
Zr343       O351   2.385       .  S
Zr343       O352   2.392       .  S
Zr344       O363   2.436       .  S
Zr344       O356   2.436       .  S
Zr344       O357   2.408       .  S
Zr344       O350   2.402       .  S
Zr344       O351   2.395       .  S
Zr345       O347   2.436       .  S
Zr345       O369   2.440       .  S
Zr345       O371   2.421       .  S
Zr345       O349   2.381       .  S
Zr345       O352   2.389       .  S
Zr346       O372   2.433       .  S
Zr346       O373   2.433       .  S
Zr346       O348   2.437       .  S
Zr346       O349   2.376       .  S
Zr346       O350   2.403       .  S
O347        H384   0.990   1_655  S
O348        H379   0.990       .  S
O348        H393   0.990       .  S
O350        H376   0.966       .  S
O351       Zr361   2.377       .  S
O352       Zr361   2.392       .  S
O352        H377   0.965       .  S
C353       C1999   1.467       .  S
C354       C1791   1.465   1_655  S
C355       C1756   1.471       .  S
O356        H392   0.990       .  S
O357        C359   1.280       .  A
O358        C359   1.285       .  A
C359       C1807   1.472       .  S
O360       Zr361   2.441       .  S
O360        H389   0.990       .  S
Zr361       O364   2.438       .  S
Zr361       O365   2.440       .  S
Zr361       O366   2.409       .  S
O362        C367   1.284       .  A
O363        H380   0.990       .  S
O363        H395   0.990       .  S
O364        H381   0.990       .  S
O365        H385   0.990       .  S
O365        H394   0.989       .  S
O366        C367   1.280       .  A
C367       C1980   1.470       .  S
O368        H387   0.990       .  S
O368        H391   0.990       .  S
O369        H383   0.990       .  S
O369        H390   0.990       .  S
O370        C374   1.288       .  A
O371        C374   1.282       .  A
O372        H382   0.990       .  S
O373        H386   0.990       .  S
C374       C1727   1.472       .  S
Zr397       O398   2.439       .  S
Zr397       O399   2.427       .  S
Zr397       O400   2.408       .  S
Zr397       O403   2.421       .  S
Zr397       O405   2.378       .  S
Zr397       O406   2.377       .  S
Zr397       O407   2.401       .  S
Zr397       O408   2.394       .  S
O398        H454   0.990       .  S
O398        H462   0.990       .  S
O399        C419   1.282       .  A
O400        C421   1.281       .  A
O401       Zr411   2.422       .  S
O401        C420   1.282       .  A
O402       Zr410   2.427   1_455  S
O402        C421   1.283       .  A
O403        C420   1.282       .  A
O404       Zr412   2.440       .  S
O404        C419   1.286       .  A
O405       Zr410   2.388   1_455  S
O405       Zr412   2.364       .  S
O406       Zr411   2.384       .  S
O406       Zr412   2.378       .  S
O406        H441   0.966       .  S
O407       Zr410   2.396   1_455  S
O407       Zr427   2.393   1_455  S
O407        H444   0.965       .  S
O408       Zr411   2.379       .  S
O408       Zr427   2.394   1_455  S
Zr409       O434   2.439       .  S
Zr409       O428   2.448       .  S
Zr409       O436   2.443       .  S
Zr409       O424   2.443       .  S
Zr409       O415   2.398   1_655  S
Zr409       O416   2.417   1_655  S
Zr409       O417   2.380       .  S
Zr409       O418   2.386   1_655  S
Zr410       O429   2.437       .  S
Zr410       O422   2.434       .  S
Zr410       O423   2.426       .  S
Zr410       O416   2.400   1_655  S
Zr410       O417   2.391       .  S
Zr411       O413   2.436       .  S
Zr411       O435   2.439       .  S
Zr411       O437   2.401       .  S
Zr411       O415   2.388       .  S
Zr411       O418   2.389       .  S
Zr412       O438   2.434       .  S
Zr412       O439   2.436       .  S
Zr412       O414   2.438       .  S
Zr412       O415   2.389       .  S
Zr412       O416   2.410       .  S
O413        H450   0.990       .  S
O414        H445   0.990       .  S
O414        H459   0.990       .  S
O416        H442   0.966   1_455  S
O417       Zr427   2.375       .  S
O418       Zr427   2.385   1_455  S
O418        H443   0.967   1_455  S
C419       C1644   1.474       .  S
C420       C1676   1.463       .  S
C421       C1708   1.459       .  S
O422        H458   0.990       .  S
O423        C425   1.283       .  A
O424        C425   1.285       .  A
C425       C1695   1.472       .  S
O426       Zr427   2.439   1_455  S
O426        H455   0.990       .  S
Zr427       O430   2.437       .  S
Zr427       O431   2.438   1_655  S
Zr427       O432   2.411       .  S
O428        C433   1.285       .  A
O429        H446   0.990       .  S
O429        H461   0.990       .  S
O430        H447   0.990       .  S
O431        H451   0.990   1_455  S
O431        H460   0.990       .  S
O432        C433   1.281       .  A
C433       C1660   1.473       .  S
O434        H453   0.990       .  S
O434        H457   0.990       .  S
O435        H449   0.990       .  S
O435        H456   0.990       .  S
O436        C440   1.285   1_655  A
O437        C440   1.278       .  A
O438        H448   0.990       .  S
O439        H452   0.990       .  S
C440       C1631   1.459       .  S
Zr463       O464   2.438       .  S
Zr463       O465   2.422       .  S
Zr463       O466   2.423       .  S
Zr463       O469   2.434       .  S
Zr463       O471   2.382       .  S
Zr463       O472   2.379       .  S
Zr463       O473   2.404       .  S
Zr463       O474   2.399       .  S
O464        H520   0.991       .  S
O464        H528   0.990       .  S
O465        C485   1.282       .  A
O466        C487   1.283       .  A
O467       Zr477   2.419       .  S
O467        C486   1.281       .  A
O468       Zr476   2.422       .  S
O468        C487   1.283       .  A
O469        C486   1.283       .  A
O470       Zr478   2.429       .  S
O470        C485   1.283       .  A
O471       Zr476   2.389       .  S
O471       Zr478   2.362       .  S
O472       Zr477   2.389       .  S
O472       Zr478   2.380       .  S
O472        H507   0.966       .  S
O473       Zr476   2.398       .  S
O473       Zr493   2.392       .  S
O473        H510   0.966       .  S
O474       Zr477   2.385       .  S
O474       Zr493   2.393       .  S
Zr475       O500   2.438       .  S
Zr475       O494   2.438       .  S
Zr475       O502   2.469       .  S
Zr475       O490   2.453       .  S
Zr475       O481   2.392       .  S
Zr475       O482   2.417       .  S
Zr475       O483   2.387       .  S
Zr475       O484   2.393       .  S
Zr476       O495   2.439       .  S
Zr476       O488   2.436       .  S
Zr476       O489   2.420       .  S
Zr476       O482   2.399       .  S
Zr476       O483   2.389       .  S
Zr477       O479   2.438       .  S
Zr477       O501   2.442       .  S
Zr477       O503   2.408       .  S
Zr477       O481   2.385       .  S
Zr477       O484   2.388       .  S
Zr478       O504   2.432       .  S
Zr478       O505   2.435       .  S
Zr478       O480   2.437       .  S
Zr478       O481   2.382       .  S
Zr478       O482   2.405       .  S
O479        H516   0.990       .  S
O480        H511   0.990       .  S
O480        H525   0.990       .  S
O482        H508   0.966       .  S
O483       Zr493   2.377       .  S
O484       Zr493   2.392       .  S
O484        H509   0.966       .  S
C485       C1580   1.469       .  S
C486       C1612   1.470       .  S
C487       C1711   1.461       .  S
O488        H524   0.990       .  S
O489        C491   1.283       .  A
O490        C491   1.286       .  A
C491       C1599   1.475       .  S
O492       Zr493   2.440       .  S
O492        H521   0.990       .  S
Zr493       O496   2.438       .  S
Zr493       O497   2.438       .  S
Zr493       O498   2.405       .  S
O494        C499   1.284       .  A
O495        H512   0.990       .  S
O495        H527   0.990       .  S
O496        H513   0.990       .  S
O497        H517   0.990       .  S
O497        H526   0.990       .  S
O498        C499   1.279       .  A
C499       C1564   1.462       .  S
O500        H519   0.990       .  S
O500        H523   0.990       .  S
O501        H515   0.990       .  S
O501        H522   0.990       .  S
O502        C506   1.289       .  A
O503        C506   1.280       .  A
O504        H514   0.990       .  S
O505        H518   0.990       .  S
C506       C1884   1.472       .  S
Zr529       O530   2.436       .  S
Zr529       O531   2.422       .  S
Zr529       O532   2.429       .  S
Zr529       O535   2.429       .  S
Zr529       O537   2.382       .  S
Zr529       O538   2.384       .  S
Zr529       O539   2.402       .  S
Zr529       O540   2.402       .  S
O530        H586   0.990       .  S
O530        H594   0.990       .  S
O531        C551   1.281       .  A
O532        C553   1.285       .  A
O533       Zr543   2.418       .  S
O533        C552   1.280       .  A
O534       Zr542   2.429       .  S
O534        C553   1.283       .  A
O535        C552   1.283       .  A
O536       Zr544   2.433       .  S
O536        C551   1.284       .  A
O537       Zr542   2.388       .  S
O537       Zr544   2.371       .  S
O538       Zr543   2.384       .  S
O538       Zr544   2.378       .  S
O538        H573   0.966       .  S
O539       Zr542   2.394       .  S
O539       Zr559   2.398       .  S
O539        H576   0.966       .  S
O540       Zr543   2.380       .  S
O540       Zr559   2.395       .  S
Zr541       O566   2.450       .  S
Zr541       O560   2.443       .  S
Zr541       O568   2.454       .  S
Zr541       O556   2.446       .  S
Zr541       O547   2.401       .  S
Zr541       O548   2.413       .  S
Zr541       O549   2.383       .  S
Zr541       O550   2.390       .  S
Zr542       O561   2.436       .  S
Zr542       O554   2.433       .  S
Zr542       O555   2.421       .  S
Zr542       O548   2.394       .  S
Zr542       O549   2.387       .  S
Zr543       O545   2.434       .  S
Zr543       O567   2.441       .  S
Zr543       O569   2.400       .  S
Zr543       O547   2.386       .  S
Zr543       O550   2.384       .  S
Zr544       O570   2.436       .  S
Zr544       O571   2.435       .  S
Zr544       O546   2.436       .  S
Zr544       O547   2.383       .  S
Zr544       O548   2.403       .  S
O545        H582   0.990       .  S
O546        H577   0.990       .  S
O546        H591   0.989       .  S
O548        H574   0.966       .  S
O549       Zr559   2.373       .  S
O550       Zr559   2.385       .  S
O550        H575   0.966       .  S
C551       C1615   1.468       .  S
C552       C1532   1.465       .  S
C553       C1548   1.471       .  S
O554        H590   0.990       .  S
O555        C557   1.283       .  A
O556        C557   1.286       .  A
C557       C1519   1.472       .  S
O558       Zr559   2.440       .  S
O558        H587   0.990       .  S
Zr559       O562   2.437       .  S
Zr559       O563   2.441       .  S
Zr559       O564   2.418       .  S
O560        C565   1.286       .  A
O561        H578   0.990       .  S
O561        H593   0.990       .  S
O562        H579   0.990       .  S
O563        H583   0.990   1_565  S
O563        H592   0.989   1_565  S
O564        C565   1.281       .  A
C565       C1596   1.470   1_565  S
O566        H585   0.990       .  S
O566        H589   0.990       .  S
O567        H581   0.990       .  S
O567        H588   0.990       .  S
O568        C572   1.287       .  A
O569        C572   1.278       .  A
O570        H580   0.990       .  S
O571        H584   0.990       .  S
C572       C1743   1.463       .  S
Zr595       O596   2.439       .  S
Zr595       O597   2.430       .  S
Zr595       O598   2.423       .  S
Zr595       O601   2.439       .  S
Zr595       O603   2.381       .  S
Zr595       O604   2.381       .  S
Zr595       O605   2.404       .  S
Zr595       O606   2.402       .  S
O596        H652   0.991       .  S
O596        H660   0.990       .  S
O597        C617   1.282       .  A
O598        C619   1.282       .  A
O599       Zr609   2.422       .  S
O599        C618   1.282       .  A
O600       Zr608   2.436       .  S
O600        C619   1.284       .  A
O601        C618   1.285       .  A
O602       Zr610   2.426       .  S
O602        C617   1.283       .  A
O603       Zr608   2.389       .  S
O603       Zr610   2.369       .  S
O604       Zr609   2.386       .  S
O604       Zr610   2.381       .  S
O604        H639   0.966       .  S
O605       Zr608   2.396       .  S
O605       Zr625   2.396       .  S
O605        H642   0.966       .  S
O606       Zr609   2.383       .  S
O606       Zr625   2.395       .  S
Zr607       O632   2.443       .  S
Zr607       O626   2.444       .  S
Zr607       O634   2.466       .  S
Zr607       O622   2.450       .  S
Zr607       O613   2.397       .  S
Zr607       O614   2.416       .  S
Zr607       O615   2.387       .  S
Zr607       O616   2.389       .  S
Zr608       O627   2.438       .  S
Zr608       O620   2.434       .  S
Zr608       O621   2.420       .  S
Zr608       O614   2.403       .  S
Zr608       O615   2.391       .  S
Zr609       O611   2.436       .  S
Zr609       O633   2.440       .  S
Zr609       O635   2.405       .  S
Zr609       O613   2.386       .  S
Zr609       O616   2.387       .  S
Zr610       O636   2.437       .  S
Zr610       O637   2.434       .  S
Zr610       O612   2.434       .  S
Zr610       O613   2.381       .  S
Zr610       O614   2.401       .  S
O611        H648   0.990       .  S
O612        H643   0.990       .  S
O612        H657   0.990       .  S
O614        H640   0.966       .  S
O615       Zr625   2.372       .  S
O616       Zr625   2.387       .  S
O616        H641   0.965       .  S
C617       C1487   1.471       .  S
C618       C1647   1.471       .  S
C619       C1551   1.469       .  S
O620        H656   0.990       .  S
O621        C623   1.282       .  A
O622        C623   1.286       .  A
C623       C1663   1.472       .  S
O624       Zr625   2.440       .  S
O624        H653   0.990       .  S
Zr625       O628   2.436       .  S
Zr625       O629   2.442       .  S
Zr625       O630   2.412       .  S
O626        C631   1.286       .  A
O627        H644   0.990       .  S
O627        H659   0.990       .  S
O628        H645   0.990       .  S
O629        H649   0.990       .  S
O629        H658   0.989       .  S
O630        C631   1.280       .  A
C631       C1500   1.468       .  S
O632        H651   0.991       .  S
O632        H655   0.990       .  S
O633        H647   0.990       .  S
O633        H654   0.990       .  S
O634        C638   1.290       .  A
O635        C638   1.280       .  A
O636        H646   0.990       .  S
O637        H650   0.990       .  S
C638       C1468   1.473       .  S
Zr661       O662   2.439       .  S
Zr661       O663   2.419       .  S
Zr661       O664   2.415       .  S
Zr661       O667   2.424       .  S
Zr661       O669   2.379   1_565  S
Zr661       O670   2.379       .  S
Zr661       O671   2.400   1_565  S
Zr661       O672   2.393   1_565  S
O662        H718   0.990       .  S
O662        H726   0.990       .  S
O663        C683   1.281       .  A
O664        C685   1.281   1_565  A
O665       Zr675   2.421   1_565  S
O665        C684   1.281       .  A
O666       Zr674   2.443       .  S
O666        C685   1.286       .  A
O667        C684   1.283       .  A
O668       Zr676   2.426   1_565  S
O668        C683   1.284       .  A
O669       Zr674   2.382       .  S
O669       Zr676   2.363       .  S
O670       Zr675   2.381   1_565  S
O670       Zr676   2.381   1_565  S
O670        H705   0.966       .  S
O671       Zr674   2.392       .  S
O671       Zr691   2.395       .  S
O671        H708   0.966       .  S
O672       Zr675   2.381       .  S
O672       Zr691   2.390       .  S
Zr673       O698   2.443       .  S
Zr673       O692   2.449       .  S
Zr673       O700   2.472       .  S
Zr673       O688   2.451       .  S
Zr673       O679   2.394       .  S
Zr673       O680   2.423       .  S
Zr673       O681   2.386       .  S
Zr673       O682   2.389       .  S
Zr674       O693   2.435       .  S
Zr674       O686   2.435       .  S
Zr674       O687   2.422       .  S
Zr674       O680   2.406       .  S
Zr674       O681   2.394       .  S
Zr675       O677   2.435       .  S
Zr675       O699   2.440   1_545  S
Zr675       O701   2.395       .  S
Zr675       O679   2.390       .  S
Zr675       O682   2.392       .  S
Zr676       O702   2.436   1_545  S
Zr676       O703   2.436       .  S
Zr676       O678   2.437       .  S
Zr676       O679   2.385       .  S
Zr676       O680   2.400       .  S
O677        H714   0.990   1_545  S
O678        H709   0.990   1_545  S
O678        H723   0.990       .  S
O680        H706   0.966       .  S
O681       Zr691   2.375       .  S
O682       Zr691   2.391       .  S
O682        H707   0.965       .  S
C683       C1679   1.464       .  S
C684       C1484   1.465       .  S
C685       C1452   1.470   1_545  S
O686        H722   0.990       .  S
O687        C689   1.283       .  A
O688        C689   1.285       .  A
C689       C1503   1.473       .  S
O690       Zr691   2.438       .  S
O690        H719   0.990       .  S
Zr691       O694   2.438       .  S
Zr691       O695   2.438       .  S
Zr691       O696   2.401       .  S
O692        C697   1.285       .  A
O693        H710   0.990       .  S
O693        H725   0.990       .  S
O694        H711   0.990       .  S
O695        H715   0.990       .  S
O695        H724   0.989       .  S
O696        C697   1.278       .  A
C697       C1692   1.469       .  S
O698        H717   0.990       .  S
O698        H721   0.991       .  S
O699        H713   0.990       .  S
O699        H720   0.990       .  S
O700        C704   1.291       .  A
O701        C704   1.277       .  A
O702        H712   0.990       .  S
O703        H716   0.990       .  S
C704       C1436   1.467       .  S
Zr727       O728   2.438       .  S
Zr727       O729   2.426       .  S
Zr727       O730   2.429       .  S
Zr727       O733   2.438       .  S
Zr727       O735   2.382       .  S
Zr727       O736   2.382       .  S
Zr727       O737   2.403       .  S
Zr727       O738   2.406       .  S
O728        H784   0.990       .  S
O728        H792   0.990       .  S
O729        C749   1.282       .  A
O730        C751   1.283       .  A
O731       Zr741   2.417       .  S
O731        C750   1.280       .  A
O732       Zr740   2.431       .  S
O732        C751   1.284       .  A
O733        C750   1.284       .  A
O734       Zr742   2.422       .  S
O734        C749   1.282       .  A
O735       Zr740   2.384       .  S
O735       Zr742   2.367       .  S
O736       Zr741   2.388       .  S
O736       Zr742   2.381       .  S
O736        H771   0.966       .  S
O737       Zr740   2.393       .  S
O737       Zr757   2.394       .  S
O737        H774   0.966       .  S
O738       Zr741   2.384       .  S
O738       Zr757   2.404       .  S
Zr739       O764   2.440       .  S
Zr739       O758   2.445       .  S
Zr739       O766   2.455       .  S
Zr739       O754   2.439       .  S
Zr739       O745   2.392       .  S
Zr739       O746   2.420       .  S
Zr739       O747   2.381       .  S
Zr739       O748   2.387       .  S
Zr740       O759   2.436       .  S
Zr740       O752   2.436   1_565  S
Zr740       O753   2.412       .  S
Zr740       O746   2.404       .  S
Zr740       O747   2.393       .  S
Zr741       O743   2.435       .  S
Zr741       O765   2.441       .  S
Zr741       O767   2.398       .  S
Zr741       O745   2.387       .  S
Zr741       O748   2.390       .  S
Zr742       O768   2.436       .  S
Zr742       O769   2.435       .  S
Zr742       O744   2.438       .  S
Zr742       O745   2.381       .  S
Zr742       O746   2.402       .  S
O743        H780   0.990       .  S
O744        H775   0.990       .  S
O744        H789   0.990       .  S
O746        H772   0.966       .  S
O747       Zr757   2.369       .  S
O748       Zr757   2.388       .  S
O748        H773   0.966       .  S
C749       C1535   1.467       .  S
C750       C1583   1.472       .  S
C751       C1455   1.469       .  S
O752        H788   0.990       .  S
O753        C755   1.282   1_565  A
O754        C755   1.283   1_565  A
C755       C1567   1.465       .  S
O756       Zr757   2.438       .  S
O756        H785   0.990       .  S
Zr757       O760   2.439       .  S
Zr757       O761   2.438       .  S
Zr757       O762   2.419       .  S
O758        C763   1.284       .  A
O759        H776   0.990       .  S
O759        H791   0.990       .  S
O760        H777   0.990       .  S
O761        H781   0.990       .  S
O761        H790   0.990       .  S
O762        C763   1.282       .  A
C763       C1516   1.475       .  S
O764        H783   0.990       .  S
O764        H787   0.990       .  S
O765        H779   0.990       .  S
O765        H786   0.990       .  S
O766        C770   1.287       .  A
O767        C770   1.278       .  A
O768        H778   0.990       .  S
O769        H782   0.990       .  S
C770       C1823   1.464       .  S
Zr793       O794   2.439       .  S
Zr793       O795   2.436       .  S
Zr793       O796   2.420       .  S
Zr793       O799   2.427       .  S
Zr793       O801   2.380       .  S
Zr793       O802   2.379       .  S
Zr793       O803   2.407       .  S
Zr793       O804   2.399       .  S
O794        H850   0.990       .  S
O794        H858   0.990       .  S
O795        C815   1.283       .  A
O796        C817   1.283       .  A
O797       Zr807   2.420       .  S
O797        C816   1.282       .  A
O798       Zr806   2.442       .  S
O798        C817   1.286       .  A
O799        C816   1.282       .  A
O800       Zr808   2.417       .  S
O800        C815   1.281       .  A
O801       Zr806   2.390       .  S
O801       Zr808   2.370       .  S
O802       Zr807   2.388       .  S
O802       Zr808   2.379       .  S
O802        H837   0.966       .  S
O803       Zr806   2.396       .  S
O803       Zr823   2.402       .  S
O803        H840   0.966       .  S
O804       Zr807   2.380       .  S
O804       Zr823   2.392       .  S
Zr805       O830   2.440       .  S
Zr805       O824   2.444       .  S
Zr805       O832   2.471       .  S
Zr805       O820   2.441       .  S
Zr805       O811   2.393       .  S
Zr805       O812   2.417       .  S
Zr805       O813   2.385       .  S
Zr805       O814   2.388       .  S
Zr806       O825   2.435       .  S
Zr806       O818   2.434       .  S
Zr806       O819   2.428       .  S
Zr806       O812   2.400       .  S
Zr806       O813   2.391       .  S
Zr807       O809   2.437       .  S
Zr807       O831   2.441       .  S
Zr807       O833   2.403       .  S
Zr807       O811   2.389       .  S
Zr807       O814   2.392       .  S
Zr808       O834   2.436       .  S
Zr808       O835   2.434       .  S
Zr808       O810   2.436       .  S
Zr808       O811   2.378       .  S
Zr808       O812   2.400       .  S
O809        H846   0.990       .  S
O810        H841   0.990       .  S
O810        H855   0.990       .  S
O812        H838   0.966       .  S
O813       Zr823   2.376       .  S
O814       Zr823   2.389       .  S
O814        H839   0.966       .  S
C815       C1375   1.470       .  S
C816       C1407   1.466       .  S
C817       C1420   1.472       .  S
O818        H854   0.990       .  S
O819        C821   1.285       .  A
O820        C821   1.284       .  A
C821       C1391   1.476       .  S
O822       Zr823   2.440       .  S
O822        H851   0.990       .  S
Zr823       O826   2.438       .  S
Zr823       O827   2.440       .  S
Zr823       O828   2.415       .  S
O824        C829   1.285       .  A
O825        H842   0.990       .  S
O825        H857   0.990       .  S
O826        H843   0.990       .  S
O827        H847   0.990   1_655  S
O827        H856   0.989       .  S
O828        C829   1.280       .  A
C829       C1356   1.470   1_655  S
O830        H849   0.990       .  S
O830        H853   0.990       .  S
O831        H845   0.990       .  S
O831        H852   0.990       .  S
O832        C836   1.289       .  A
O833        C836   1.279       .  A
O834        H844   0.990       .  S
O835        H848   0.990       .  S
C836       C1724   1.469       .  S
Zr859       O860   2.439       .  S
Zr859       O861   2.431       .  S
Zr859       O862   2.435       .  S
Zr859       O865   2.437       .  S
Zr859       O867   2.378       .  S
Zr859       O868   2.384       .  S
Zr859       O869   2.406       .  S
Zr859       O870   2.408       .  S
O860        H916   0.990       .  S
O860        H924   0.990       .  S
O861        C881   1.283       .  A
O862        C883   1.285       .  A
O863       Zr873   2.411       .  S
O863        C882   1.278       .  A
O864       Zr872   2.437       .  S
O864        C883   1.285       .  A
O865        C882   1.285       .  A
O866       Zr874   2.423       .  S
O866        C881   1.282       .  A
O867       Zr872   2.385       .  S
O867       Zr874   2.365       .  S
O868       Zr873   2.390       .  S
O868       Zr874   2.381       .  S
O868        H903   0.966       .  S
O869       Zr872   2.397       .  S
O869       Zr889   2.400       .  S
O869        H906   0.966       .  S
O870       Zr873   2.385       .  S
O870       Zr889   2.397       .  S
Zr871       O896   2.441       .  S
Zr871       O890   2.437       .  S
Zr871       O898   2.471       .  S
Zr871       O886   2.456       .  S
Zr871       O877   2.393       .  S
Zr871       O878   2.415       .  S
Zr871       O879   2.386       .  S
Zr871       O880   2.392       .  S
Zr872       O891   2.436       .  S
Zr872       O884   2.436       .  S
Zr872       O885   2.419       .  S
Zr872       O878   2.404       .  S
Zr872       O879   2.392       .  S
Zr873       O875   2.437       .  S
Zr873       O897   2.441       .  S
Zr873       O899   2.409       .  S
Zr873       O877   2.385       .  S
Zr873       O880   2.387       .  S
Zr874       O900   2.433       .  S
Zr874       O901   2.434       .  S
Zr874       O876   2.436       .  S
Zr874       O877   2.382       .  S
Zr874       O878   2.401       .  S
O875        H912   0.990       .  S
O876        H907   0.990       .  S
O876        H921   0.990       .  S
O878        H904   0.966       .  S
O879       Zr889   2.375       .  S
O880       Zr889   2.391       .  S
O880        H905   0.965       .  S
C881       C1292   1.469       .  S
C882       C1324   1.465       .  S
C883       C1423   1.474       .  S
O884        H920   0.990       .  S
O885        C887   1.282       .  A
O886        C887   1.287       .  A
C887       C1343   1.475       .  S
O888       Zr889   2.440       .  S
O888        H917   0.990       .  S
Zr889       O892   2.437       .  S
Zr889       O893   2.440       .  S
Zr889       O894   2.412       .  S
O890        C895   1.284       .  A
O891        H908   0.990       .  S
O891        H923   0.990       .  S
O892        H909   0.990       .  S
O893        H913   0.990       .  S
O893        H922   0.989       .  S
O894        C895   1.280       .  A
C895       C1308   1.465       .  S
O896        H915   0.990       .  S
O896        H919   0.990       .  S
O897        H911   0.990       .  S
O897        H918   0.990       .  S
O898        C902   1.290       .  A
O899        C902   1.280       .  A
O900        H910   0.990       .  S
O901        H914   0.990       .  S
C902       C1471   1.474       .  S
Zr925       O926   2.438       .  S
Zr925       O927   2.427       .  S
Zr925       O928   2.418       .  S
Zr925       O931   2.420       .  S
Zr925       O933   2.377       .  S
Zr925       O934   2.379       .  S
Zr925       O935   2.404       .  S
Zr925       O936   2.398       .  S
O926        H982   0.990       .  S
O926        H990   0.990       .  S
O927        C947   1.283       .  A
O928        C949   1.281       .  A
O929       Zr939   2.422       .  S
O929        C948   1.281       .  A
O930       Zr938   2.437       .  S
O930        C949   1.284       .  A
O931        C948   1.282       .  A
O932       Zr940   2.423       .  S
O932        C947   1.282       .  A
O933       Zr938   2.380       .  S
O933       Zr940   2.368       .  S
O934       Zr939   2.384       .  S
O934       Zr940   2.382       .  S
O934        H969   0.966       .  S
O935       Zr938   2.389       .  S
O935       Zr955   2.405       .  S
O935        H972   0.966       .  S
O936       Zr939   2.375       .  S
O936       Zr955   2.395       .  S
Zr937       O962   2.443       .  S
Zr937       O956   2.451       .  S
Zr937       O964   2.465       .  S
Zr937       O952   2.443       .  S
Zr937       O943   2.394       .  S
Zr937       O944   2.417       .  S
Zr937       O945   2.384       .  S
Zr937       O946   2.388       .  S
Zr938       O957   2.432       .  S
Zr938       O950   2.436       .  S
Zr938       O951   2.409       .  S
Zr938       O944   2.401       .  S
Zr938       O945   2.394       .  S
Zr939       O941   2.434       .  S
Zr939       O963   2.440       .  S
Zr939       O965   2.394       .  S
Zr939       O943   2.390       .  S
Zr939       O946   2.395       .  S
Zr940       O966   2.436       .  S
Zr940       O967   2.437       .  S
Zr940       O942   2.438       .  S
Zr940       O943   2.380       .  S
Zr940       O944   2.399       .  S
O941        H978   0.990       .  S
O942        H973   0.990       .  S
O942        H987   0.990       .  S
O944        H970   0.966       .  S
O945       Zr955   2.375       .  S
O946       Zr955   2.388       .  S
O946        H971   0.966       .  S
C947       C1260   1.466       .  S
C948       C1372   1.463       .  S
C949       C1279   1.470       .  S
O950        H986   0.990       .  S
O951        C953   1.281       .  A
O952        C953   1.285       .  A
C953       C1359   1.469       .  S
O954       Zr955   2.439       .  S
O954        H983   0.990       .  S
Zr955       O958   2.438       .  S
Zr955       O959   2.440       .  S
Zr955       O960   2.419       .  S
O956        C961   1.286       .  A
O957        H974   0.990       .  S
O957        H989   0.990       .  S
O958        H975   0.990       .  S
O959        H979   0.990       .  S
O959        H988   0.989       .  S
O960        C961   1.281       .  A
C961       C1247   1.475       .  S
O962        H981   0.990       .  S
O962        H985   0.991       .  S
O963        H977   0.990       .  S
O963        H984   0.990       .  S
O964        C968   1.288       .  A
O965        C968   1.277       .  A
O966        H976   0.990       .  S
O967        H980   0.990       .  S
C968       C1775   1.461       .  S
Zr991       O992   2.438       .  S
Zr991       O993   2.421       .  S
Zr991       O994   2.422       .  S
Zr991       O997   2.437       .  S
Zr991       O999   2.380       .  S
Zr991      O1000   2.380       .  S
Zr991      O1001   2.404       .  S
Zr991      O1002   2.396       .  S
O992       H1048   0.990       .  S
O992       H1056   0.990       .  S
O993       C1013   1.281       .  A
O994       C1015   1.282       .  A
O995      Zr1005   2.417       .  S
O995       C1014   1.280       .  A
O996      Zr1004   2.448   1_545  S
O996       C1015   1.287       .  A
O997       C1014   1.284       .  A
O998      Zr1006   2.427       .  S
O998       C1013   1.283       .  A
O999      Zr1004   2.385   1_545  S
O999      Zr1006   2.369       .  S
O1000     Zr1005   2.380       .  S
O1000     Zr1006   2.379       .  S
O1000      H1035   0.966       .  S
O1001     Zr1004   2.393   1_545  S
O1001     Zr1021   2.401   1_545  S
O1001      H1038   0.966       .  S
O1002     Zr1005   2.377       .  S
O1002     Zr1021   2.394   1_545  S
Zr1003     O1028   2.441       .  S
Zr1003     O1022   2.452       .  S
Zr1003     O1030   2.472       .  S
Zr1003     O1018   2.451       .  S
Zr1003     O1009   2.397   1_565  S
Zr1003     O1010   2.420       .  S
Zr1003     O1011   2.386       .  S
Zr1003     O1012   2.387   1_565  S
Zr1004     O1023   2.435       .  S
Zr1004     O1016   2.435       .  S
Zr1004     O1017   2.416       .  S
Zr1004     O1010   2.407       .  S
Zr1004     O1011   2.393       .  S
Zr1005     O1007   2.435       .  S
Zr1005     O1029   2.439       .  S
Zr1005     O1031   2.392       .  S
Zr1005     O1009   2.388       .  S
Zr1005     O1012   2.391       .  S
Zr1006     O1032   2.436       .  S
Zr1006     O1033   2.436       .  S
Zr1006     O1008   2.436       .  S
Zr1006     O1009   2.386       .  S
Zr1006     O1010   2.402   1_545  S
O1007      H1044   0.990       .  S
O1008      H1039   0.990       .  S
O1008      H1053   0.990       .  S
O1010      H1036   0.966       .  S
O1011     Zr1021   2.374       .  S
O1012     Zr1021   2.388   1_545  S
O1012      H1037   0.966   1_545  S
C1013      C1327   1.465       .  S
C1014      C1228   1.467       .  S
C1015      C1276   1.473       .  S
O1016      H1052   0.990       .  S
O1017      C1019   1.283       .  A
O1018      C1019   1.285       .  A
C1019      C1215   1.473       .  S
O1020     Zr1021   2.440   1_545  S
O1020      H1049   0.990       .  S
Zr1021     O1024   2.441       .  S
Zr1021     O1025   2.439   1_565  S
Zr1021     O1026   2.418       .  S
O1022      C1027   1.286       .  A
O1023      H1040   0.990       .  S
O1023      H1055   0.990       .  S
O1024      H1041   0.990       .  S
O1025      H1045   0.990   1_545  S
O1025      H1054   0.989       .  S
O1026      C1027   1.281       .  A
C1027      C1340   1.477       .  S
O1028      H1047   0.990       .  S
O1028      H1051   0.990       .  S
O1029      H1043   0.990       .  S
O1029      H1050   0.990       .  S
O1030      C1034   1.291   1_565  A
O1031      C1034   1.277       .  A
O1032      H1042   0.990       .  S
O1033      H1046   0.990       .  S
C1034      C1439   1.468       .  S
Zr1057     O1058   2.437       .  S
Zr1057     O1059   2.424       .  S
Zr1057     O1060   2.428       .  S
Zr1057     O1063   2.429       .  S
Zr1057     O1065   2.382       .  S
Zr1057     O1066   2.379       .  S
Zr1057     O1067   2.403   1_655  S
Zr1057     O1068   2.401       .  S
O1058      H1114   0.990       .  S
O1058      H1122   0.990       .  S
O1059      C1079   1.282       .  A
O1060      C1081   1.283       .  A
O1061     Zr1071   2.424       .  S
O1061      C1080   1.283       .  A
O1062     Zr1070   2.426       .  S
O1062      C1081   1.284   1_455  A
O1063      C1080   1.283       .  A
O1064     Zr1072   2.423       .  S
O1064      C1079   1.283       .  A
O1065     Zr1070   2.385   1_655  S
O1065     Zr1072   2.368       .  S
O1066     Zr1071   2.380       .  S
O1066     Zr1072   2.375       .  S
O1066      H1101   0.966       .  S
O1067     Zr1070   2.394       .  S
O1067     Zr1087   2.402       .  S
O1067      H1104   0.966       .  S
O1068     Zr1071   2.382       .  S
O1068     Zr1087   2.394   1_655  S
Zr1069     O1094   2.441       .  S
Zr1069     O1088   2.430       .  S
Zr1069     O1096   2.445       .  S
Zr1069     O1084   2.437       .  S
Zr1069     O1075   2.394       .  S
Zr1069     O1076   2.411       .  S
Zr1069     O1077   2.382       .  S
Zr1069     O1078   2.387       .  S
Zr1070     O1089   2.434       .  S
Zr1070     O1082   2.438       .  S
Zr1070     O1083   2.419       .  S
Zr1070     O1076   2.400       .  S
Zr1070     O1077   2.390       .  S
Zr1071     O1073   2.435       .  S
Zr1071     O1095   2.439       .  S
Zr1071     O1097   2.400   1_655  S
Zr1071     O1075   2.388   1_655  S
Zr1071     O1078   2.388   1_655  S
Zr1072     O1098   2.435       .  S
Zr1072     O1099   2.435       .  S
Zr1072     O1074   2.436       .  S
Zr1072     O1075   2.382   1_655  S
Zr1072     O1076   2.403   1_655  S
O1073      H1110   0.990       .  S
O1074      H1105   0.990       .  S
O1074      H1119   0.990       .  S
O1076      H1102   0.966       .  S
O1077     Zr1087   2.376       .  S
O1078     Zr1087   2.383       .  S
O1078      H1103   0.965       .  S
C1079      C1231   1.466       .  S
C1080      C1295   1.469       .  S
C1081      C1199   1.467       .  S
O1082      H1118   0.990       .  S
O1083      C1085   1.282       .  A
O1084      C1085   1.282       .  A
C1085      C1311   1.469       .  S
O1086     Zr1087   2.440       .  S
O1086      H1115   0.990       .  S
Zr1087     O1090   2.438       .  S
Zr1087     O1091   2.439       .  S
Zr1087     O1092   2.422       .  S
O1088      C1093   1.282       .  A
O1089      H1106   0.990       .  S
O1089      H1121   0.990       .  S
O1090      H1107   0.990       .  S
O1091      H1111   0.990       .  S
O1091      H1120   0.989       .  S
O1092      C1093   1.282       .  A
C1093      C1212   1.467       .  S
O1094      H1113   0.990       .  S
O1094      H1117   0.991       .  S
O1095      H1109   0.990       .  S
O1095      H1116   0.990       .  S
O1096      C1100   1.286       .  A
O1097      C1100   1.278       .  A
O1098      H1108   0.990       .  S
O1099      H1112   0.990   1_655  S
C1100      C1628   1.460       .  S
Zr1123     O1124   2.439       .  S
Zr1123     O1125   2.427       .  S
Zr1123     O1126   2.415       .  S
Zr1123     O1129   2.427       .  S
Zr1123     O1131   2.380       .  S
Zr1123     O1132   2.376       .  S
Zr1123     O1133   2.407       .  S
Zr1123     O1134   2.399       .  S
O1124      H1180   0.991       .  S
O1124      H1188   0.990       .  S
O1125      C1145   1.282       .  A
O1126      C1147   1.281       .  A
O1127     Zr1137   2.421       .  S
O1127      C1146   1.282       .  A
O1128     Zr1136   2.439       .  S
O1128      C1147   1.285       .  A
O1129      C1146   1.283       .  A
O1130     Zr1138   2.424       .  S
O1130      C1145   1.282       .  A
O1131     Zr1136   2.384       .  S
O1131     Zr1138   2.369       .  S
O1132     Zr1137   2.384       .  S
O1132     Zr1138   2.374       .  S
O1132      H1167   0.966       .  S
O1133     Zr1136   2.394       .  S
O1133     Zr1153   2.401       .  S
O1133      H1170   0.966       .  S
O1134     Zr1137   2.382       .  S
O1134     Zr1153   2.395       .  S
Zr1135     O1160   2.442       .  S
Zr1135     O1154   2.449       .  S
Zr1135     O1162   2.466       .  S
Zr1135     O1150   2.440       .  S
Zr1135     O1141   2.401       .  S
Zr1135     O1142   2.417       .  S
Zr1135     O1143   2.384       .  S
Zr1135     O1144   2.386       .  S
Zr1136     O1155   2.437       .  S
Zr1136     O1148   2.435       .  S
Zr1136     O1149   2.427       .  S
Zr1136     O1142   2.400       .  S
Zr1136     O1143   2.390       .  S
Zr1137     O1139   2.437       .  S
Zr1137     O1161   2.441       .  S
Zr1137     O1163   2.404       .  S
Zr1137     O1141   2.393       .  S
Zr1137     O1144   2.393       .  S
Zr1138     O1164   2.435       .  S
Zr1138     O1165   2.434       .  S
Zr1138     O1140   2.437       .  S
Zr1138     O1141   2.388       .  S
Zr1138     O1142   2.397       .  S
O1139      H1176   0.990       .  S
O1140      H1171   0.990       .  S
O1140      H1185   0.990       .  S
O1142      H1168   0.966       .  S
O1143     Zr1153   2.372       .  S
O1144     Zr1153   2.386       .  S
O1144      H1169   0.966       .  S
C1145      C1404   1.466       .  S
C1146      C1263   1.466       .  S
C1147      C1196   1.468       .  S
O1148      H1184   0.990       .  S
O1149      C1151   1.285       .  A
O1150      C1151   1.285       .  A
C1151      C1244   1.473   1_655  S
O1152     Zr1153   2.438       .  S
O1152      H1181   0.990       .  S
Zr1153     O1156   2.438       .  S
Zr1153     O1157   2.438       .  S
Zr1153     O1158   2.418       .  S
O1154      C1159   1.286       .  A
O1155      H1172   0.990       .  S
O1155      H1187   0.990       .  S
O1156      H1173   0.990       .  S
O1157      H1177   0.990       .  S
O1157      H1186   0.989       .  S
O1158      C1159   1.281       .  A
C1159      C1388   1.474       .  S
O1160      H1179   0.990       .  S
O1160      H1183   0.990       .  S
O1161      H1175   0.990       .  S
O1161      H1182   0.990       .  S
O1162      C1166   1.289       .  A
O1163      C1166   1.279       .  A
O1164      H1174   0.990       .  S
O1165      H1178   0.990       .  S
C1166      C1967   1.470       .  S
C1189      C1194   1.381       .  A
C1189      C1190   1.403       .  A
C1189      O1195   1.319       .  A
C1190      C1191   1.402       .  A
C1190      H1201   1.082   1_655  S
C1191      C1200   1.361       .  A
C1191      C1192   1.381       .  A
C1192      C1193   1.400       .  A
C1192      O1198   1.316       .  A
C1193      C1194   1.400       .  A
C1193      H1202   1.082       .  S
C1194      C1197   1.357       .  A
O1195      C1196   1.330       .  A
C1196      C1197   1.391       .  A
C1197      H1203   1.083       .  S
O1198      C1199   1.330       .  A
C1199      C1200   1.392       .  A
C1200      H1204   1.083   1_655  S
C1205      C1210   1.381       .  A
C1205      C1206   1.396       .  A
C1205      O1211   1.313       .  A
C1206      C1207   1.396       .  A
C1206      H1217   1.082       .  S
C1207      C1216   1.352       .  A
C1207      C1208   1.380       .  A
C1208      C1209   1.409       .  A
C1208      O1214   1.325       .  A
C1209      C1210   1.409       .  A
C1209      H1218   1.082       .  S
C1210      C1213   1.367       .  A
O1211      C1212   1.327       .  A
C1212      C1213   1.395       .  A
C1213      H1219   1.082       .  S
O1214      C1215   1.335       .  A
C1215      C1216   1.389       .  A
C1216      H1220   1.083       .  S
C1221      C1226   1.381       .  A
C1221      C1222   1.398       .  A
C1221      O1227   1.311       .  A
C1222      C1223   1.395       .  A
C1222      H1233   1.083       .  S
C1223      C1232   1.355       .  A
C1223      C1224   1.380       .  A
C1224      C1225   1.407       .  A
C1224      O1230   1.320       .  A
C1225      C1226   1.406       .  A
C1225      H1234   1.082       .  S
C1226      C1229   1.368       .  A
O1227      C1228   1.328       .  A
C1228      C1229   1.394       .  A
C1229      H1235   1.082       .  S
O1230      C1231   1.332       .  A
C1231      C1232   1.388       .  A
C1232      H1236   1.083       .  S
C1237      C1242   1.380       .  A
C1237      C1238   1.407       .  A
C1237      O1243   1.322       .  A
C1238      C1239   1.406       .  A
C1238      H1249   1.082       .  S
C1239      C1248   1.368       .  A
C1239      C1240   1.380       .  A
C1240      C1241   1.401       .  A
C1240      O1246   1.316       .  A
C1241      C1242   1.400       .  A
C1241      H1250   1.082       .  S
C1242      C1245   1.359       .  A
O1243      C1244   1.333       .  A
C1244      C1245   1.391       .  A
C1245      H1251   1.083       .  S
O1246      C1247   1.331       .  A
C1247      C1248   1.394       .  A
C1248      H1252   1.082       .  S
C1253      C1258   1.381       .  A
C1253      C1254   1.398       .  A
C1253      O1259   1.315       .  A
C1254      C1255   1.398       .  A
C1254      H1265   1.082       .  S
C1255      C1264   1.354       .  A
C1255      C1256   1.381       .  A
C1256      C1257   1.404       .  A
C1256      O1262   1.320       .  A
C1257      C1258   1.404       .  A
C1257      H1266   1.082       .  S
C1258      C1261   1.363       .  A
O1259      C1260   1.328       .  A
C1260      C1261   1.393       .  A
C1261      H1267   1.082       .  S
O1262      C1263   1.331       .  A
C1263      C1264   1.390       .  A
C1264      H1268   1.083       .  S
C1269      C1274   1.380       .  A
C1269      C1270   1.401       .  A
C1269      O1275   1.315       .  A
C1270      C1271   1.399       .  A
C1270      H1281   1.083       .  S
C1271      C1280   1.359       .  A
C1271      C1272   1.380       .  A
C1272      C1273   1.406       .  A
C1272      O1278   1.321       .  A
C1273      C1274   1.406       .  A
C1273      H1282   1.082       .  S
C1274      C1277   1.368       .  A
O1275      C1276   1.330       .  A
C1276      C1277   1.394       .  A
C1277      H1283   1.082       .  S
O1278      C1279   1.332       .  A
C1279      C1280   1.391       .  A
C1280      H1284   1.083       .  S
C1285      C1290   1.381       .  A
C1285      C1286   1.398       .  A
C1285      O1291   1.315       .  A
C1286      C1287   1.398       .  A
C1286      H1297   1.082       .  S
C1287      C1296   1.355       .  A
C1287      C1288   1.380       .  A
C1288      C1289   1.406       .  A
C1288      O1294   1.322       .  A
C1289      C1290   1.406       .  A
C1289      H1298   1.082       .  S
C1290      C1293   1.365       .  A
O1291      C1292   1.329       .  A
C1292      C1293   1.394       .  A
C1293      H1299   1.082       .  S
O1294      C1295   1.332       .  A
C1295      C1296   1.390       .  A
C1296      H1300   1.083       .  S
C1301      C1306   1.381       .  A
C1301      C1302   1.397       .  A
C1301      O1307   1.313       .  A
C1302      C1303   1.396       .  A
C1302      H1313   1.082       .  S
C1303      C1312   1.355       .  A
C1303      C1304   1.380       .  A
C1304      C1305   1.407       .  A
C1304      O1310   1.321       .  A
C1305      C1306   1.406       .  A
C1305      H1314   1.082       .  S
C1306      C1309   1.366       .  A
O1307      C1308   1.328       .  A
C1308      C1309   1.393       .  A
C1309      H1315   1.082       .  S
O1310      C1311   1.333       .  A
C1311      C1312   1.388       .  A
C1312      H1316   1.083       .  S
C1317      C1322   1.380       .  A
C1317      C1318   1.400       .  A
C1317      O1323   1.312       .  A
C1318      C1319   1.398       .  A
C1318      H1329   1.083       .  S
C1319      C1328   1.359       .  A
C1319      C1320   1.381       .  A
C1320      C1321   1.404       .  A
C1320      O1326   1.317       .  A
C1321      C1322   1.402       .  A
C1321      H1330   1.082       .  S
C1322      C1325   1.365       .  A
O1323      C1324   1.330       .  A
C1324      C1325   1.391       .  A
C1325      H1331   1.082       .  S
O1326      C1327   1.331       .  A
C1327      C1328   1.390       .  A
C1328      H1332   1.083       .  S
C1333      C1338   1.380       .  A
C1333      C1334   1.408       .  A
C1333      O1339   1.324       .  A
C1334      C1335   1.408       .  A
C1334      H1345   1.082       .  S
C1335      C1344   1.368       .  A
C1335      C1336   1.380       .  A
C1336      C1337   1.401       .  A
C1336      O1342   1.317       .  A
C1337      C1338   1.401       .  A
C1337      H1346   1.082       .  S
C1338      C1341   1.358       .  A
O1339      C1340   1.334       .  A
C1340      C1341   1.392       .  A
C1341      H1347   1.083       .  S
O1342      C1343   1.330       .  A
C1343      C1344   1.394       .  A
C1344      H1348   1.082       .  S
C1349      C1354   1.381       .  A
C1349      C1350   1.399       .  A
C1349      O1355   1.315       .  A
C1350      C1351   1.398       .  A
C1350      H1361   1.083       .  S
C1351      C1360   1.354   1_565  A
C1351      C1352   1.380       .  A
C1352      C1353   1.406       .  A
C1352      O1358   1.322   1_565  A
C1353      C1354   1.406       .  A
C1353      H1362   1.082       .  S
C1354      C1357   1.366       .  A
O1355      C1356   1.329       .  A
C1356      C1357   1.393       .  A
C1357      H1363   1.082       .  S
O1358      C1359   1.332       .  A
C1359      C1360   1.390       .  A
C1360      H1364   1.083       .  S
C1365      C1370   1.381       .  A
C1365      C1366   1.396       .  A
C1365      O1371   1.312       .  A
C1366      C1367   1.396       .  A
C1366      H1377   1.082       .  S
C1367      C1376   1.354       .  A
C1367      C1368   1.380       .  A
C1368      C1369   1.407       .  A
C1368      O1374   1.321       .  A
C1369      C1370   1.406       .  A
C1369      H1378   1.082       .  S
C1370      C1373   1.366       .  A
O1371      C1372   1.327       .  A
C1372      C1373   1.393       .  A
C1373      H1379   1.083       .  S
O1374      C1375   1.333       .  A
C1375      C1376   1.389       .  A
C1376      H1380   1.083       .  S
C1381      C1386   1.380       .  A
C1381      C1382   1.398       .  A
C1381      O1387   1.314   1_565  A
C1382      C1383   1.397       .  A
C1382      H1393   1.082       .  S
C1383      C1392   1.356       .  A
C1383      C1384   1.379       .  A
C1384      C1385   1.411       .  A
C1384      O1390   1.325       .  A
C1385      C1386   1.410       .  A
C1385      H1394   1.082       .  S
C1386      C1389   1.371   1_565  A
O1387      C1388   1.329       .  A
C1388      C1389   1.396       .  A
C1389      H1395   1.082       .  S
O1390      C1391   1.336       .  A
C1391      C1392   1.389       .  A
C1392      H1396   1.083       .  S
C1397      C1402   1.381       .  A
C1397      C1398   1.396       .  A
C1397      O1403   1.313       .  A
C1398      C1399   1.395       .  A
C1398      H1409   1.082       .  S
C1399      C1408   1.352       .  A
C1399      C1400   1.380       .  A
C1400      C1401   1.406       .  A
C1400      O1406   1.321       .  A
C1401      C1402   1.406       .  A
C1401      H1410   1.082       .  S
C1402      C1405   1.365       .  A
O1403      C1404   1.327       .  A
C1404      C1405   1.394       .  A
C1405      H1411   1.082       .  S
O1406      C1407   1.332       .  A
C1407      C1408   1.388       .  A
C1408      H1412   1.083       .  S
C1413      C1418   1.380       .  A
C1413      C1414   1.407       .  A
C1413      O1419   1.323       .  A
C1414      C1415   1.407       .  A
C1414      H1425   1.082       .  S
C1415      C1424   1.366       .  A
C1415      C1416   1.381       .  A
C1416      C1417   1.400       .  A
C1416      O1422   1.317       .  A
C1417      C1418   1.399       .  A
C1417      H1426   1.082       .  S
C1418      C1421   1.356       .  A
O1419      C1420   1.333       .  A
C1420      C1421   1.391       .  A
C1421      H1427   1.083       .  S
O1422      C1423   1.330       .  A
C1423      C1424   1.395       .  A
C1424      H1428   1.082       .  S
C1429      C1434   1.380       .  A
C1429      C1430   1.406   1_545  A
C1429      O1435   1.314       .  A
C1430      C1431   1.402   1_564  A
C1430      H1441   1.082       .  S
C1431      C1440   1.369   1_545  A
C1431      C1432   1.380       .  A
C1432      C1433   1.404       .  A
C1432      O1438   1.313       .  A
C1433      C1434   1.399   1_556  A
C1433      H1442   1.082       .  S
C1434      C1437   1.367       .  A
O1435      C1436   1.332       .  A
C1436      C1437   1.389       .  A
C1437      H1443   1.082       .  S
O1438      C1439   1.331       .  A
C1439      C1440   1.391   1_545  A
C1440      H1444   1.082       .  S
C1445      C1450   1.381       .  A
C1445      C1446   1.403   1_565  A
C1445      O1451   1.319   1_565  A
C1446      C1447   1.403   1_545  A
C1446      H1457   1.082       .  S
C1447      C1456   1.362       .  A
C1447      C1448   1.380       .  A
C1448      C1449   1.402       .  A
C1448      O1454   1.317       .  A
C1449      C1450   1.401       .  A
C1449      H1458   1.083       .  S
C1450      C1453   1.359       .  A
O1451      C1452   1.330   1_545  A
C1452      C1453   1.393       .  A
C1453      H1459   1.083       .  S
O1454      C1455   1.330       .  A
C1455      C1456   1.392       .  A
C1456      H1460   1.082       .  S
C1461      C1466   1.381       .  A
C1461      C1462   1.403       .  A
C1461      O1467   1.324       .  A
C1462      C1463   1.405   1_554  A
C1462      H1473   1.082   1_554  S
C1463      C1472   1.358       .  A
C1463      C1464   1.381       .  A
C1464      C1465   1.403   1_556  A
C1464      O1470   1.323       .  A
C1465      C1466   1.404       .  A
C1465      H1474   1.082       .  S
C1466      C1469   1.356       .  A
O1467      C1468   1.331       .  A
C1468      C1469   1.393       .  A
C1469      H1475   1.083       .  S
O1470      C1471   1.331       .  A
C1471      C1472   1.394       .  A
C1472      H1476   1.083       .  S
C1477      C1482   1.381       .  A
C1477      C1478   1.399       .  A
C1477      O1483   1.314       .  A
C1478      C1479   1.398       .  A
C1478      H1489   1.082       .  S
C1479      C1488   1.356       .  A
C1479      C1480   1.380       .  A
C1480      C1481   1.406       .  A
C1480      O1486   1.321       .  A
C1481      C1482   1.405       .  A
C1481      H1490   1.082       .  S
C1482      C1485   1.365       .  A
O1483      C1484   1.328       .  A
C1484      C1485   1.392       .  A
C1485      H1491   1.082       .  S
O1486      C1487   1.333       .  A
C1487      C1488   1.390       .  A
C1488      H1492   1.083       .  S
C1493      C1498   1.380       .  A
C1493      C1494   1.399       .  A
C1493      O1499   1.313       .  A
C1494      C1495   1.398       .  A
C1494      H1505   1.082       .  S
C1495      C1504   1.357       .  A
C1495      C1496   1.380       .  A
C1496      C1497   1.407       .  A
C1496      O1502   1.321       .  A
C1497      C1498   1.406       .  A
C1497      H1506   1.082       .  S
C1498      C1501   1.367       .  A
O1499      C1500   1.329       .  A
C1500      C1501   1.393       .  A
C1501      H1507   1.082       .  S
O1502      C1503   1.333       .  A
C1503      C1504   1.390       .  A
C1504      H1508   1.083       .  S
C1509      C1514   1.380       .  A
C1509      C1510   1.409       .  A
C1509      O1515   1.324   1_655  A
C1510      C1511   1.409       .  A
C1510      H1521   1.082       .  S
C1511      C1520   1.368       .  A
C1511      C1512   1.380       .  A
C1512      C1513   1.398       .  A
C1512      O1518   1.315       .  A
C1513      C1514   1.398       .  A
C1513      H1522   1.082       .  S
C1514      C1517   1.355   1_655  A
O1515      C1516   1.335       .  A
C1516      C1517   1.390       .  A
C1517      H1523   1.083       .  S
O1518      C1519   1.329       .  A
C1519      C1520   1.395       .  A
C1520      H1524   1.082       .  S
C1525      C1530   1.381       .  A
C1525      C1526   1.397       .  A
C1525      O1531   1.311       .  A
C1526      C1527   1.396       .  A
C1526      H1537   1.083       .  S
C1527      C1536   1.356       .  A
C1527      C1528   1.380       .  A
C1528      C1529   1.406       .  A
C1528      O1534   1.319       .  A
C1529      C1530   1.405       .  A
C1529      H1538   1.082       .  S
C1530      C1533   1.368       .  A
O1531      C1532   1.328       .  A
C1532      C1533   1.393       .  A
C1533      H1539   1.082       .  S
O1534      C1535   1.332       .  A
C1535      C1536   1.389       .  A
C1536      H1540   1.083       .  S
C1541      C1546   1.380       .  A
C1541      C1542   1.408       .  A
C1541      O1547   1.322       .  A
C1542      C1543   1.407       .  A
C1542      H1553   1.082       .  S
C1543      C1552   1.368       .  A
C1543      C1544   1.381       .  A
C1544      C1545   1.398       .  A
C1544      O1550   1.313       .  A
C1545      C1546   1.396       .  A
C1545      H1554   1.082       .  S
C1546      C1549   1.355       .  A
O1547      C1548   1.334       .  A
C1548      C1549   1.389       .  A
C1549      H1555   1.083       .  S
O1550      C1551   1.328       .  A
C1551      C1552   1.394       .  A
C1552      H1556   1.082       .  S
C1557      C1562   1.381       .  A
C1557      C1558   1.396       .  A
C1557      O1563   1.310       .  A
C1558      C1559   1.394       .  A
C1558      H1569   1.082       .  S
C1559      C1568   1.354       .  A
C1559      C1560   1.380       .  A
C1560      C1561   1.406       .  A
C1560      O1566   1.319       .  A
C1561      C1562   1.405       .  A
C1561      H1570   1.082       .  S
C1562      C1565   1.367       .  A
O1563      C1564   1.327       .  A
C1564      C1565   1.393       .  A
C1565      H1571   1.082       .  S
O1566      C1567   1.332       .  A
C1567      C1568   1.388       .  A
C1568      H1572   1.083       .  S
C1573      C1578   1.381       .  A
C1573      C1574   1.398       .  A
C1573      O1579   1.315       .  A
C1574      C1575   1.398       .  A
C1574      H1585   1.082       .  S
C1575      C1584   1.354       .  A
C1575      C1576   1.380       .  A
C1576      C1577   1.406       .  A
C1576      O1582   1.323       .  A
C1577      C1578   1.406       .  A
C1577      H1586   1.082       .  S
C1578      C1581   1.365       .  A
O1579      C1580   1.328       .  A
C1580      C1581   1.394       .  A
C1581      H1587   1.082       .  S
O1582      C1583   1.332       .  A
C1583      C1584   1.391       .  A
C1584      H1588   1.083       .  S
C1589      C1594   1.380       .  A
C1589      C1590   1.399       .  A
C1589      O1595   1.314       .  A
C1590      C1591   1.398       .  A
C1590      H1601   1.082       .  S
C1591      C1600   1.357       .  A
C1591      C1592   1.380       .  A
C1592      C1593   1.408       .  A
C1592      O1598   1.323   1_655  A
C1593      C1594   1.407       .  A
C1593      H1602   1.082       .  S
C1594      C1597   1.368       .  A
O1595      C1596   1.329       .  A
C1596      C1597   1.394       .  A
C1597      H1603   1.082       .  S
O1598      C1599   1.334       .  A
C1599      C1600   1.391   1_455  A
C1600      H1604   1.083       .  S
C1605      C1610   1.380       .  A
C1605      C1606   1.408       .  A
C1605      O1611   1.323       .  A
C1606      C1607   1.408       .  A
C1606      H1617   1.082       .  S
C1607      C1616   1.366       .  A
C1607      C1608   1.381       .  A
C1608      C1609   1.396       .  A
C1608      O1614   1.314       .  A
C1609      C1610   1.396       .  A
C1609      H1618   1.082       .  S
C1610      C1613   1.353       .  A
O1611      C1612   1.333       .  A
C1612      C1613   1.389       .  A
C1613      H1619   1.083       .  S
O1614      C1615   1.327       .  A
C1615      C1616   1.395       .  A
C1616      H1620   1.083       .  S
C1621      C1626   1.380       .  A
C1621      C1622   1.402   1_456  A
C1621      O1627   1.312       .  A
C1622      C1623   1.399   1_655  A
C1622      H1633   1.082   1_554  S
C1623      C1632   1.364   1_455  A
C1623      C1624   1.381       .  A
C1624      C1625   1.401       .  A
C1624      O1630   1.311       .  A
C1625      C1626   1.398   1_554  A
C1625      H1634   1.082       .  S
C1626      C1629   1.364       .  A
O1627      C1628   1.330       .  A
C1628      C1629   1.389       .  A
C1629      H1635   1.082       .  S
O1630      C1631   1.329       .  A
C1631      C1632   1.389   1_455  A
C1632      H1636   1.082       .  S
C1637      C1642   1.379       .  A
C1637      C1638   1.410       .  A
C1637      O1643   1.322       .  A
C1638      C1639   1.409       .  A
C1638      H1649   1.082       .  S
C1639      C1648   1.371       .  A
C1639      C1640   1.380       .  A
C1640      C1641   1.398       .  A
C1640      O1646   1.312       .  A
C1641      C1642   1.396       .  A
C1641      H1650   1.082       .  S
C1642      C1645   1.358       .  A
O1643      C1644   1.335       .  A
C1644      C1645   1.389       .  A
C1645      H1651   1.083       .  S
O1646      C1647   1.328       .  A
C1647      C1648   1.396       .  A
C1648      H1652   1.082       .  S
C1653      C1658   1.380       .  A
C1653      C1654   1.408       .  A
C1653      O1659   1.324       .  A
C1654      C1655   1.408       .  A
C1654      H1665   1.082       .  S
C1655      C1664   1.368       .  A
C1655      C1656   1.380       .  A
C1656      C1657   1.398       .  A
C1656      O1662   1.314       .  A
C1657      C1658   1.397       .  A
C1657      H1666   1.082       .  S
C1658      C1661   1.355       .  A
O1659      C1660   1.334       .  A
C1660      C1661   1.390       .  A
C1661      H1667   1.083       .  S
O1662      C1663   1.329       .  A
C1663      C1664   1.395       .  A
C1664      H1668   1.082       .  S
C1669      C1674   1.381       .  A
C1669      C1670   1.397       .  A
C1669      O1675   1.312       .  A
C1670      C1671   1.396       .  A
C1670      H1681   1.082       .  S
C1671      C1680   1.355       .  A
C1671      C1672   1.381       .  A
C1672      C1673   1.405       .  A
C1672      O1678   1.319       .  A
C1673      C1674   1.404       .  A
C1673      H1682   1.082       .  S
C1674      C1677   1.364       .  A
O1675      C1676   1.327       .  A
C1676      C1677   1.392       .  A
C1677      H1683   1.082       .  S
O1678      C1679   1.332       .  A
C1679      C1680   1.388       .  A
C1680      H1684   1.083       .  S
C1685      C1690   1.380       .  A
C1685      C1686   1.406       .  A
C1685      O1691   1.322       .  A
C1686      C1687   1.406       .  A
C1686      H1697   1.082       .  S
C1687      C1696   1.365       .  A
C1687      C1688   1.381       .  A
C1688      C1689   1.399       .  A
C1688      O1694   1.316       .  A
C1689      C1690   1.399       .  A
C1689      H1698   1.082       .  S
C1690      C1693   1.354       .  A
O1691      C1692   1.332       .  A
C1692      C1693   1.390       .  A
C1693      H1699   1.083       .  S
O1694      C1695   1.329       .  A
C1695      C1696   1.394       .  A
C1696      H1700   1.082       .  S
C1701      C1706   1.381       .  A
C1701      C1702   1.402       .  A
C1701      O1707   1.318       .  A
C1702      C1703   1.402       .  A
C1702      H1713   1.082       .  S
C1703      C1712   1.361       .  A
C1703      C1704   1.381       .  A
C1704      C1705   1.397       .  A
C1704      O1710   1.313       .  A
C1705      C1706   1.396       .  A
C1705      H1714   1.083       .  S
C1706      C1709   1.352       .  A
O1707      C1708   1.330       .  A
C1708      C1709   1.388       .  A
C1709      H1715   1.083       .  S
O1710      C1711   1.328       .  A
C1711      C1712   1.392       .  A
C1712      H1716   1.082       .  S
C1717      C1722   1.381       .  A
C1717      C1718   1.402       .  A
C1717      O1723   1.323       .  A
C1718      C1719   1.404       .  A
C1718      H1729   1.082       .  S
C1719      C1728   1.357       .  A
C1719      C1720   1.381       .  A
C1720      C1721   1.402       .  A
C1720      O1726   1.322       .  A
C1721      C1722   1.403       .  A
C1721      H1730   1.082       .  S
C1722      C1725   1.355       .  A
O1723      C1724   1.330       .  A
C1724      C1725   1.392       .  A
C1725      H1731   1.083       .  S
O1726      C1727   1.331       .  A
C1727      C1728   1.393       .  A
C1728      H1732   1.083       .  S
C1733      C1738   1.380       .  A
C1733      C1734   1.403       .  A
C1733      O1739   1.312       .  A
C1734      C1735   1.399       .  A
C1734      H1745   1.082       .  S
C1735      C1744   1.366       .  A
C1735      C1736   1.380       .  A
C1736      C1737   1.402       .  A
C1736      O1742   1.311       .  A
C1737      C1738   1.398       .  A
C1737      H1746   1.082       .  S
C1738      C1741   1.365       .  A
O1739      C1740   1.331       .  A
C1740      C1741   1.389       .  A
C1741      H1747   1.082       .  S
O1742      C1743   1.330       .  A
C1743      C1744   1.390       .  A
C1744      H1748   1.082       .  S
C1749      C1754   1.380       .  A
C1749      C1750   1.401       .  A
C1749      O1755   1.317       .  A
C1750      C1751   1.400       .  A
C1750      H1761   1.082       .  S
C1751      C1760   1.358       .  A
C1751      C1752   1.380       .  A
C1752      C1753   1.407       .  A
C1752      O1758   1.323       .  A
C1753      C1754   1.406       .  A
C1753      H1762   1.082       .  S
C1754      C1757   1.365       .  A
O1755      C1756   1.330       .  A
C1756      C1757   1.393       .  A
C1757      H1763   1.082       .  S
O1758      C1759   1.334       .  A
C1759      C1760   1.391       .  A
C1760      H1764   1.083       .  S
C1765      C1770   1.380       .  A
C1765      C1766   1.402       .  A
C1765      O1771   1.312       .  A
C1766      C1767   1.398       .  A
C1766      H1777   1.082       .  S
C1767      C1776   1.364       .  A
C1767      C1768   1.380       .  A
C1768      C1769   1.405       .  A
C1768      O1774   1.313       .  A
C1769      C1770   1.401       .  A
C1769      H1778   1.082       .  S
C1770      C1773   1.367       .  A
O1771      C1772   1.330       .  A
C1772      C1773   1.391       .  A
C1773      H1779   1.082       .  S
O1774      C1775   1.331       .  A
C1775      C1776   1.388       .  A
C1776      H1780   1.082       .  S
C1781      C1786   1.380       .  A
C1781      C1782   1.405       .  A
C1781      O1787   1.320   1_565  A
C1782      C1783   1.404       .  A
C1782      H1793   1.082       .  S
C1783      C1792   1.365       .  A
C1783      C1784   1.381       .  A
C1784      C1785   1.399       .  A
C1784      O1790   1.313       .  A
C1785      C1786   1.398       .  A
C1785      H1794   1.083       .  S
C1786      C1789   1.356   1_565  A
O1787      C1788   1.332       .  A
C1788      C1789   1.390       .  A
C1789      H1795   1.083   1_545  S
O1790      C1791   1.329       .  A
C1791      C1792   1.392       .  A
C1792      H1796   1.082       .  S
C1797      C1802   1.381       .  A
C1797      C1798   1.398       .  A
C1797      O1803   1.316       .  A
C1798      C1799   1.398       .  A
C1798      H1809   1.082       .  S
C1799      C1808   1.353       .  A
C1799      C1800   1.380       .  A
C1800      C1801   1.407       .  A
C1800      O1806   1.324       .  A
C1801      C1802   1.408       .  A
C1801      H1810   1.082       .  S
C1802      C1805   1.366       .  A
O1803      C1804   1.329       .  A
C1804      C1805   1.395       .  A
C1805      H1811   1.082       .  S
O1806      C1807   1.333       .  A
C1807      C1808   1.390       .  A
C1808      H1812   1.083       .  S
C1813      C1818   1.382       .  A
C1813      C1814   1.400       .  A
C1813      O1819   1.321       .  A
C1814      C1815   1.402       .  A
C1814      H1825   1.082       .  S
C1815      C1824   1.354       .  A
C1815      C1816   1.382       .  A
C1816      C1817   1.399       .  A
C1816      O1822   1.320       .  A
C1817      C1818   1.401       .  A
C1817      H1826   1.082       .  S
C1818      C1821   1.353       .  A
O1819      C1820   1.329       .  A
C1820      C1821   1.391       .  A
C1821      H1827   1.083       .  S
O1822      C1823   1.328       .  A
C1823      C1824   1.392       .  A
C1824      H1828   1.083       .  S
C1829      C1834   1.381       .  A
C1829      C1830   1.405       .  A
C1829      O1835   1.322   1_655  A
C1830      C1831   1.404       .  A
C1830      H1841   1.082       .  S
C1831      C1840   1.362       .  A
C1831      C1832   1.381       .  A
C1832      C1833   1.398       .  A
C1832      O1838   1.315       .  A
C1833      C1834   1.398       .  A
C1833      H1842   1.083       .  S
C1834      C1837   1.353       .  A
O1835      C1836   1.332       .  A
C1836      C1837   1.390   1_455  A
C1837      H1843   1.083       .  S
O1838      C1839   1.328       .  A
C1839      C1840   1.392       .  A
C1840      H1844   1.082       .  S
C1845      C1850   1.381       .  A
C1845      C1846   1.398       .  A
C1845      O1851   1.314       .  A
C1846      C1847   1.397       .  A
C1846      H1857   1.082       .  S
C1847      C1856   1.355       .  A
C1847      C1848   1.380       .  A
C1848      C1849   1.408       .  A
C1848      O1854   1.322       .  A
C1849      C1850   1.407       .  A
C1849      H1858   1.082       .  S
C1850      C1853   1.367       .  A
O1851      C1852   1.328       .  A
C1852      C1853   1.394       .  A
C1853      H1859   1.082       .  S
O1854      C1855   1.333       .  A
C1855      C1856   1.389       .  A
C1856      H1860   1.083       .  S
C1861      C1866   1.381       .  A
C1861      C1862   1.400       .  A
C1861      O1867   1.316   1_545  A
C1862      C1863   1.399       .  A
C1862      H1873   1.082       .  S
C1863      C1872   1.356       .  A
C1863      C1864   1.381       .  A
C1864      C1865   1.402       .  A
C1864      O1870   1.319       .  A
C1865      C1866   1.402       .  A
C1865      H1874   1.082       .  S
C1866      C1869   1.361   1_545  A
O1867      C1868   1.330       .  A
C1868      C1869   1.392       .  A
C1869      H1875   1.082       .  S
O1870      C1871   1.330       .  A
C1871      C1872   1.391       .  A
C1872      H1876   1.083       .  S
C1877      C1882   1.381       .  A
C1877      C1878   1.403       .  A
C1877      O1883   1.325       .  A
C1878      C1879   1.405       .  A
C1878      H1889   1.082       .  S
C1879      C1888   1.355       .  A
C1879      C1880   1.381       .  A
C1880      C1881   1.401       .  A
C1880      O1886   1.323       .  A
C1881      C1882   1.403       .  A
C1881      H1890   1.082       .  S
C1882      C1885   1.354       .  A
O1883      C1884   1.331       .  A
C1884      C1885   1.391       .  A
C1885      H1891   1.083       .  S
O1886      C1887   1.330       .  A
C1887      C1888   1.393       .  A
C1888      H1892   1.083       .  S
C1893      C1898   1.381       .  A
C1893      C1894   1.405       .  A
C1893      O1899   1.322       .  A
C1894      C1895   1.405       .  A
C1894      H1905   1.082       .  S
C1895      C1904   1.363       .  A
C1895      C1896   1.381       .  A
C1896      C1897   1.399       .  A
C1896      O1902   1.316       .  A
C1897      C1898   1.399       .  A
C1897      H1906   1.083       .  S
C1898      C1901   1.355       .  A
O1899      C1900   1.332       .  A
C1900      C1901   1.391       .  A
C1901      H1907   1.083       .  S
O1902      C1903   1.329       .  A
C1903      C1904   1.392       .  A
C1904      H1908   1.082       .  S
C1909      C1914   1.380       .  A
C1909      C1910   1.399       .  A
C1909      O1915   1.315       .  A
C1910      C1911   1.398       .  A
C1910      H1921   1.082       .  S
C1911      C1920   1.356       .  A
C1911      C1912   1.380       .  A
C1912      C1913   1.410       .  A
C1912      O1918   1.324       .  A
C1913      C1914   1.409       .  A
C1913      H1922   1.082       .  S
C1914      C1917   1.370       .  A
O1915      C1916   1.329       .  A
C1916      C1917   1.397       .  A
C1917      H1923   1.082       .  S
O1918      C1919   1.334       .  A
C1919      C1920   1.389       .  A
C1920      H1924   1.083       .  S
C1925      C1930   1.381       .  A
C1925      C1926   1.398       .  A
C1925      O1931   1.315       .  A
C1926      C1927   1.398       .  A
C1926      H1937   1.083       .  S
C1927      C1936   1.353       .  A
C1927      C1928   1.380       .  A
C1928      C1929   1.407       .  A
C1928      O1934   1.323       .  A
C1929      C1930   1.407       .  A
C1929      H1938   1.082       .  S
C1930      C1933   1.365       .  A
O1931      C1932   1.328       .  A
C1932      C1933   1.394       .  A
C1933      H1939   1.082       .  S
O1934      C1935   1.333       .  A
C1935      C1936   1.390       .  A
C1936      H1940   1.083       .  S
C1941      C1946   1.381       .  A
C1941      C1942   1.402       .  A
C1941      O1947   1.320       .  A
C1942      C1943   1.402       .  A
C1942      H1953   1.082       .  S
C1943      C1952   1.361   1_655  A
C1943      C1944   1.381       .  A
C1944      C1945   1.399       .  A
C1944      O1950   1.315       .  A
C1945      C1946   1.399       .  A
C1945      H1954   1.083       .  S
C1946      C1949   1.354       .  A
O1947      C1948   1.329       .  A
C1948      C1949   1.391       .  A
C1949      H1955   1.083       .  S
O1950      C1951   1.329   1_655  A
C1951      C1952   1.391       .  A
C1952      H1956   1.082       .  S
C1957      C1962   1.380       .  A
C1957      C1958   1.407       .  A
C1957      O1963   1.317       .  A
C1958      C1959   1.404       .  A
C1958      H1969   1.082       .  S
C1959      C1968   1.369       .  A
C1959      C1960   1.380       .  A
C1960      C1961   1.403       .  A
C1960      O1966   1.314       .  A
C1961      C1962   1.399       .  A
C1961      H1970   1.082       .  S
C1962      C1965   1.365       .  A
O1963      C1964   1.333       .  A
C1964      C1965   1.389       .  A
C1965      H1971   1.082       .  S
O1966      C1967   1.330       .  A
C1967      C1968   1.392       .  A
C1968      H1972   1.082       .  S
C1973      C1978   1.380       .  A
C1973      C1974   1.408       .  A
C1973      O1979   1.323       .  A
C1974      C1975   1.408       .  A
C1974      H1985   1.082       .  S
C1975      C1984   1.367       .  A
C1975      C1976   1.381       .  A
C1976      C1977   1.396       .  A
C1976      O1982   1.314       .  A
C1977      C1978   1.396       .  A
C1977      H1986   1.082       .  S
C1978      C1981   1.353       .  A
O1979      C1980   1.333       .  A
C1980      C1981   1.389       .  A
C1981      H1987   1.083       .  S
O1982      C1983   1.328       .  A
C1983      C1984   1.395       .  A
C1984      H1988   1.082       .  S
C1989      C1994   1.381       .  A
C1989      C1990   1.399       .  A
C1989      O1995   1.314   1_565  A
C1990      C1991   1.398       .  A
C1990      H2001   1.083       .  S
C1991      C2000   1.356       .  A
C1991      C1992   1.380       .  A
C1992      C1993   1.405       .  A
C1992      O1998   1.320       .  A
C1993      C1994   1.405       .  A
C1993      H2002   1.082       .  S
C1994      C1997   1.366   1_565  A
O1995      C1996   1.330       .  A
C1996      C1997   1.393       .  A
C1997      H2003   1.082       .  S
O1998      C1999   1.331       .  A
C1999      C2000   1.390       .  A
C2000      H2004   1.083       .  S
C2005      C2010   1.381       .  A
C2005      C2006   1.405       .  A
C2005      O2011   1.322       .  A
C2006      C2007   1.405       .  A
C2006      H2017   1.082       .  S
C2007      C2016   1.363       .  A
C2007      C2008   1.381       .  A
C2008      C2009   1.398       .  A
C2008      O2014   1.315       .  A
C2009      C2010   1.398       .  A
C2009      H2018   1.082       .  S
C2010      C2013   1.353       .  A
O2011      C2012   1.332       .  A
C2012      C2013   1.390       .  A
C2013      H2019   1.083       .  S
O2014      C2015   1.328       .  A
C2015      C2016   1.393       .  A
C2016      H2020   1.083       .  S
C2021      C2026   1.381       .  A
C2021      C2022   1.404       .  A
C2021      O2027   1.322       .  A
C2022      C2023   1.405       .  A
C2022      H2033   1.082       .  S
C2023      C2032   1.362       .  A
C2023      C2024   1.381       .  A
C2024      C2025   1.399       .  A
C2024      O2030   1.316       .  A
C2025      C2026   1.399       .  A
C2025      H2034   1.082       .  S
C2026      C2029   1.354       .  A
O2027      C2028   1.332       .  A
C2028      C2029   1.390       .  A
C2029      H2035   1.083       .  S
O2030      C2031   1.329       .  A
C2031      C2032   1.393       .  A
C2032      H2036   1.082       .  S
C2037      C2042   1.382       .  A
C2037      C2038   1.394       .  A
C2037      O2043   1.311   1_455  A
C2038      C2039   1.393       .  A
C2038      H2049   1.082       .  S
C2039      C2048   1.350       .  A
C2039      C2040   1.381       .  A
C2040      C2041   1.404       .  A
C2040      O2046   1.319       .  A
C2041      C2042   1.404       .  A
C2041      H2050   1.082       .  S
C2042      C2045   1.363   1_455  A
O2043      C2044   1.325       .  A
C2044      C2045   1.394       .  A
C2045      H2051   1.083       .  S
O2046      C2047   1.331       .  A
C2047      C2048   1.386       .  A
C2048      H2052   1.083       .  S
