geometry optimzed in LAMMPS
_audit_creation_date              2020-12-01 
_audit_creation_method            'lammps2cif' 
_symmetry_space_group_name_H-M    'P1' 
_symmetry_Int_Tables_number       1 
_symmetry_cell_setting            triclinic 
loop_ 
_symmetry_equiv_pos_as_xyz 
  x,y,z 
_cell_length_a                    32.74002407 
_cell_length_b                    32.736963312248925 
_cell_length_c                    60.42754349638963 
_cell_angle_alpha                 90.02821210863894 
_cell_angle_beta                  90.0449095852051 
_cell_angle_gamma                 119.97372834277073 
loop_ 
_atom_site_label 
_atom_site_type_symbol 
_atom_site_fract_x 
_atom_site_fract_y 
_atom_site_fract_z 
_atom_site_charge 
O1          O  0.91795937  0.36373002  0.74515356    -0.87400
C2          C  0.96693366  0.29587769  0.70784771     0.88600
Mg3        Mg  0.86171136  0.37690284  0.73633332     1.58100
O4          O  0.03439526  0.42003346  0.71040538    -0.87200
O5          O  0.98942831  0.40718186  0.75829562    -0.74500
C6          C  0.90826312  0.44878635  0.62989709     0.93600
O7          O  0.85724461  0.28135303  0.71040687    -0.74300
O8          O  0.87392055  0.43310945  0.64360451    -0.81800
Mg9        Mg  0.90117430  0.28980619  0.74156377     1.58000
C10         C  0.09430064  0.49004633  0.65129304     0.93600
O11         O  0.94040963  0.28979132  0.77330405    -0.80100
H12         H  0.07370781  0.48064122  0.72669915    -0.05400
C13         C  0.94816699  0.36495184  0.65741862     0.88500
O14         O  0.91595982  0.45138239  0.72419329    -0.74600
O15         O  0.96450955  0.31997239  0.72297110    -0.87400
O16         O  0.09570176  0.46449621  0.66676130    -0.80200
C17         C  0.10707026  0.36793389  0.71324770     0.93700
C18         C  0.98299727  0.30385147  0.77876581     0.93500
Mg19       Mg  0.99251985  0.46796844  0.66845288     1.58000
O20         O  0.94923004  0.45710904  0.63582256    -0.80100
O21         O  0.03925847  0.48633127  0.69989015    -0.74300
O22         O  0.06897964  0.34517880  0.72381650    -0.80200
O23         O  0.83285736  0.25935042  0.76074002    -0.81900
O24         O  0.82138441  0.42335724  0.69454705    -0.80200
C25         C  0.05023575  0.46284057  0.71297944     0.88000
O26         O  0.93162722  0.44563040  0.68933386    -0.87300
O27         O  0.98136479  0.39708130  0.66785963    -0.87500
O28         O  0.90619174  0.35832977  0.65837650    -0.74500
Mg29       Mg  0.02675554  0.37627012  0.73836405     1.58000
O30         O  0.10829275  0.39021538  0.69568293    -0.81900
H31         H  0.93280770  0.40898008  0.77079703    -0.05600
O32         O  0.85799405  0.34799729  0.70422509    -0.87200
H33         H  0.82011941  0.29025942  0.68587405    -0.05400
H34         H  0.95967343  0.50748430  0.70517587    -0.05600
C35         C  0.84365302  0.30601204  0.69979561     0.87900
C36         C  0.94584733  0.39328616  0.75905150     0.88500
C37         C  0.93638556  0.46974724  0.70597198     0.88600
H38         H  0.95492382  0.34193114  0.64714491    -0.05600
O39         O  0.99247568  0.31487370  0.69092735    -0.74600
Mg40       Mg  0.86588497  0.39163285  0.67622616     1.58000
H41         H  0.94660605  0.25786420  0.70895111    -0.05600
C42         C  0.79975715  0.26894652  0.75978341     0.93600
O43         O  0.80613744  0.39237843  0.72859847    -0.81800
C44         C  0.80057112  0.41568477  0.71349293     0.93600
O45         O  0.01798314  0.33195850  0.76719909    -0.81800
Mg46       Mg  0.04246034  0.39178187  0.68023099     1.58200
O47         O  0.80445959  0.30586162  0.75042984    -0.80200
O48         O  0.05773596  0.49280051  0.64704947    -0.81900
O49         O  0.91534146  0.59329002  0.40548846    -0.87400
C50         C  0.96022010  0.70995632  0.44243267     0.88600
Mg51       Mg  0.86005833  0.52333394  0.41416137     1.58100
O52         O  0.03029144  0.65599967  0.44103225    -0.87200
O53         O  0.98728838  0.62310732  0.39275584    -0.74500
C54         C  0.90544775  0.50079724  0.52134120     0.93600
O55         O  0.85160747  0.61310646  0.43912590    -0.74300
O56         O  0.87104582  0.48174003  0.50761408    -0.81800
Mg57       Mg  0.89629977  0.64897035  0.40823008     1.58000
C58         C  0.09069377  0.64787026  0.50053514     0.93600
O59         O  0.93631808  0.68825816  0.37662910    -0.80100
H60         H  0.07114183  0.63604858  0.42519030    -0.05400
C61         C  0.94282565  0.62384520  0.49339617     0.88500
O62         O  0.91508046  0.50500651  0.42713406    -0.74600
O63         O  0.95893849  0.68373542  0.42740701    -0.87400
O64         O  0.09114057  0.67530037  0.48554323    -0.80200
C65         C  0.10098809  0.78023895  0.43766575     0.93700
C66         C  0.97882284  0.71776294  0.37147647     0.93500
Mg67       Mg  0.98956007  0.56676950  0.48306795     1.58000
O68         O  0.94618755  0.53381125  0.51546024    -0.80100
O69         O  0.03668608  0.59565073  0.45188074    -0.74300
O70         O  0.06232016  0.76465354  0.42754607    -0.80200
O71         O  0.82861842  0.60930517  0.38845063    -0.81900
O72         O  0.81815316  0.43702179  0.45656817    -0.80200
C73         C  0.04718958  0.62987695  0.43873410     0.88000
O74         O  0.92905547  0.52691264  0.46199561    -0.87300
O75         O  0.97683459  0.62567421  0.48341389    -0.87500
O76         O  0.90127393  0.58790613  0.49214748    -0.74500
Mg77       Mg  0.02247431  0.69143245  0.41274045     1.58000
O78         O  0.10272077  0.76005233  0.45543418    -0.81900
H79         H  0.93195068  0.56370807  0.38011835    -0.05600
O80         O  0.85422980  0.54841654  0.44605171    -0.87200
H81         H  0.81448526  0.56712141  0.46363028    -0.05400
H82         H  0.95878043  0.49393627  0.44687927    -0.05600
C83         C  0.83864699  0.57525655  0.44996968     0.87900
C84         C  0.94401002  0.59245115  0.39182283     0.88500
C85         C  0.93490748  0.50765009  0.44562172     0.88600
H86         H  0.94847913  0.65348722  0.50350324    -0.05600
O87         O  0.98571772  0.71740202  0.45950235    -0.74600
Mg88       Mg  0.86240851  0.51392114  0.47456399     1.58000
H89         H  0.93902338  0.72669836  0.44108756    -0.05600
C90         C  0.79634652  0.56626545  0.38946814     0.93600
O91         O  0.80572313  0.45182125  0.42179848    -0.81800
C92         C  0.79843747  0.42340809  0.43737535     0.93600
O93         O  0.01372356  0.72625827  0.38355369    -0.81800
Mg94       Mg  0.03709050  0.69257821  0.47101464     1.58200
O95         O  0.80200836  0.53498971  0.39919986    -0.80200
O96         O  0.05466952  0.60804412  0.50460371    -0.81900
O97         O  0.69824974  0.14021910  0.07333854    -0.87400
C98         C  0.76696966  0.09349154  0.11155181     0.88600
Mg99       Mg  0.68415438  0.19630591  0.08127431     1.58100
O100        O  0.64304551  0.02525116  0.10870980    -0.87200
O101        O  0.65614152  0.06839465  0.06037576    -0.74500
C102        C  0.61158486  0.15248072  0.18780484     0.93600
O103        O  0.78007515  0.20271689  0.10790710    -0.74300
O104        O  0.62700269  0.18638878  0.17384491    -0.81800
Mg105      Mg  0.77236586  0.15794134  0.07715464     1.58000
C106        C  0.57308879  0.96645416  0.16809053     0.93600
O107        O  0.77240341  0.11779414  0.04576429    -0.80100
H108        H  0.58266135  0.98494653  0.09242175    -0.05400
C109        C  0.69689428  0.11318138  0.16120065     0.88500
O110        O  0.60987584  0.14177249  0.09355153    -0.74600
O111        O  0.74290818  0.09519235  0.09620468    -0.87400
O112        O  0.59809433  0.96482556  0.15243197    -0.80200
C113        C  0.69529725  0.95288232  0.10687904     0.93700
C114        C  0.75913648  0.07527237  0.04048452     0.93500
Mg115      Mg  0.59387339  0.06729084  0.15005100     1.58000
O116        O  0.60392390  0.11153730  0.18225538    -0.80100
O117        O  0.57627975  0.01966144  0.11894454    -0.74300
O118        O  0.71873947  0.99106951  0.09645955    -0.80200
O119        O  0.80234401  0.22564591  0.05742746    -0.81900
O120        O  0.63684259  0.23748571  0.12235552    -0.80200
C121        C  0.60018077  0.00885268  0.10603703     0.88000
O122        O  0.61553778  0.12744307  0.12863022    -0.87300
O123        O  0.66506125  0.07938830  0.15092406    -0.87500
O124        O  0.70290467  0.15489647  0.15984564    -0.74500
Mg125      Mg  0.68729140  0.03218487  0.08101326     1.58000
O126        O  0.67272923  0.95188042  0.12429338    -0.81900
H127        H  0.65352519  0.12422113  0.04737493    -0.05600
O128        O  0.71306983  0.20163538  0.11356749    -0.87200
H129        H  0.77055674  0.24042073  0.13193598    -0.05400
H130        H  0.55382363  0.09815143  0.11261531    -0.05600
C131        C  0.75507719  0.21640317  0.11815718     0.87900
C132        C  0.66929948  0.11180270  0.05939645     0.88500
C133        C  0.59149552  0.12180896  0.11185552     0.88600
H134        H  0.72015320  0.10718526  0.17168666    -0.05600
O135        O  0.74793460  0.06831061  0.12857720    -0.74600
Mg136      Mg  0.66897096  0.19397859  0.14137259     1.58000
H137        H  0.80497717  0.11410268  0.11054370    -0.05600
C138        C  0.79232950  0.25849498  0.05781679     0.93600
O139        O  0.66738044  0.25144963  0.08821098    -0.81800
C140        C  0.64420705  0.25754666  0.10321623     0.93600
O141        O  0.73204203  0.04029113  0.05233289    -0.81800
Mg142      Mg  0.67094825  0.01812454  0.13916858     1.58200
O143        O  0.75514124  0.25375254  0.06691309    -0.80200
O144        O  0.57001133  0.00292636  0.17213007    -0.81900
O145        O  0.46328393  0.14027227  0.41170720    -0.87400
C146        C  0.34632183  0.09406609  0.37475170     0.88600
Mg147      Mg  0.53312491  0.19644669  0.40347728     1.58100
O148        O  0.40212135  0.02565426  0.37598996    -0.87200
O149        O  0.43435356  0.06834678  0.42433933    -0.74500
C150        C  0.55795447  0.15434659  0.29616816     0.93600
O151        O  0.44255940  0.20328004  0.37811717    -0.74300
O152        O  0.57682518  0.18838916  0.31008937    -0.81800
Mg153      Mg  0.40679085  0.15818628  0.40889540     1.58000
C154        C  0.41243030  0.96818276  0.31609662     0.93600
O155        O  0.36754701  0.11772785  0.44034895    -0.80100
H156        H  0.42327582  0.98551651  0.39160831    -0.05400
C157        C  0.43433283  0.11469665  0.32402190     0.88500
O158        O  0.55272569  0.14244097  0.39039194    -0.74600
O159        O  0.37278491  0.09559556  0.38970993    -0.87400
O160        O  0.38498604  0.96653699  0.33136753    -0.80200
C161        C  0.27734883  0.95362168  0.37861336     0.93700
C162        C  0.33862230  0.07512552  0.44559357     0.93500
Mg163      Mg  0.49230773  0.06910068  0.33409799     1.58000
O164        O  0.52505661  0.11339546  0.30187005    -0.80100
O165        O  0.46355240  0.02116151  0.36508148    -0.74300
O166        O  0.29291029  0.99133899  0.38955765    -0.80200
O167        O  0.44537259  0.22576206  0.42877416    -0.81900
O168        O  0.62024521  0.23996154  0.36154065    -0.80200
C169        C  0.42902573  0.00962360  0.37818670     0.88000
O170        O  0.53143164  0.12911605  0.35544967    -0.87300
O171        O  0.43284399  0.08081430  0.33398551    -0.87500
O172        O  0.47001739  0.15641834  0.32531499    -0.74500
Mg173      Mg  0.36614852  0.03238224  0.40431445     1.58000
O174        O  0.29827941  0.95296645  0.36088282    -0.81900
H175        H  0.49318731  0.12412898  0.43710633    -0.05600
O176        O  0.50844539  0.20267720  0.37155517    -0.87200
H177        H  0.48868532  0.24143925  0.35385419    -0.05400
H178        H  0.56488303  0.09974886  0.37045576    -0.05600
C179        C  0.48084768  0.21728828  0.36749721     0.87900
C180        C  0.46449680  0.11176758  0.42535488     0.88500
C181        C  0.55067407  0.12319097  0.37181178     0.88600
H182        H  0.40465870  0.10877450  0.31386792    -0.05600
O183        O  0.33958671  0.06925554  0.35750983    -0.74600
Mg184      Mg  0.54378650  0.19568971  0.34314437     1.58000
H185        H  0.32884526  0.11454228  0.37628587    -0.05600
C186        C  0.48828913  0.25838716  0.42811154     0.93600
O187        O  0.60461712  0.25165334  0.39628491    -0.81800
C188        C  0.63340559  0.25927976  0.38083798     0.93600
O189        O  0.33079298  0.04026344  0.43362123    -0.81800
Mg190      Mg  0.36605080  0.01939009  0.34589760     1.58200
O191        O  0.52016664  0.25343371  0.41857668    -0.80200
O192        O  0.45186372  0.00476629  0.31215609    -0.81900
O193        O  0.58369890  0.69874809  0.23907998    -0.87400
C194        C  0.70151692  0.76324970  0.27623205     0.88600
Mg195      Mg  0.51491731  0.68667090  0.24834089     1.58100
O196        O  0.64169031  0.63893911  0.27304985    -0.87200
O197        O  0.60978305  0.65408558  0.22543951    -0.74500
C198        C  0.49055548  0.61350215  0.35455784     0.93600
O199        O  0.60751169  0.78067231  0.27441125    -0.74300
O200        O  0.47188796  0.62950566  0.34100954    -0.81800
Mg201      Mg  0.64206443  0.77199489  0.24302300     1.58000
C202        C  0.63216740  0.56891672  0.33217746     0.93600
O203        O  0.68092339  0.77217275  0.21115593    -0.80100
H204        H  0.61877947  0.57821055  0.25660983    -0.05400
C205        C  0.61377311  0.69513391  0.32656092     0.88500
O206        O  0.49379293  0.61165798  0.26015998    -0.74600
O207        O  0.67429559  0.73992932  0.26114769    -0.87400
O208        O  0.65709603  0.59191071  0.31570297    -0.80200
C209        C  0.76643417  0.68816931  0.27007062     0.93700
C210        C  0.70846777  0.75709859  0.20539727     0.93500
Mg211      Mg  0.55330118  0.59247820  0.31559941     1.58000
O212        O  0.52254394  0.60446134  0.34839657    -0.80100
O213        O  0.58003361  0.57317333  0.28385301    -0.74300
O214        O  0.75154170  0.71111908  0.25927785    -0.80200
O215        O  0.60501398  0.80420199  0.22425826    -0.81900
O216        O  0.42908485  0.64011458  0.29037559    -0.80200
C217        C  0.61402870  0.59626691  0.27048793     0.88000
O218        O  0.51530102  0.61599636  0.29497028    -0.87300
O219        O  0.61366117  0.66266348  0.31588394    -0.87500
O220        O  0.57906933  0.70281952  0.32596720    -0.74500
Mg221      Mg  0.67807204  0.68277561  0.24518619     1.58000
O222        O  0.74503337  0.66593201  0.28756532    -0.81900
H223        H  0.55224104  0.65452012  0.21320238    -0.05600
O224        O  0.54103272  0.71463871  0.28045890    -0.87200
H225        H  0.56201107  0.77219765  0.29909068    -0.05400
H226        H  0.48075830  0.55471620  0.27870615    -0.05600
C227        C  0.56926004  0.75638552  0.28503005     0.87900
C228        C  0.58105881  0.66920296  0.22493415     0.88500
C229        C  0.49567887  0.59254453  0.27819516     0.88600
H230        H  0.64402660  0.71751625  0.33672552    -0.05600
O231        O  0.70767717  0.74341509  0.29295276    -0.74600
Mg232      Mg  0.50526744  0.67085508  0.30840380     1.58000
H233        H  0.72016340  0.80130980  0.27527305    -0.05600
C234        C  0.56250305  0.79526031  0.22518226     0.93600
O235        O  0.44430596  0.67230341  0.25656945    -0.81800
C236        C  0.41566955  0.64838037  0.27163872     0.93600
O237        O  0.71398708  0.72753145  0.21652260    -0.81800
Mg238      Mg  0.67877385  0.66589736  0.30317448     1.58200
O239        O  0.52991783  0.75844558  0.23444637    -0.80200
O240        O  0.59366894  0.56738625  0.33699177    -0.81900
O241        O  0.35692675  0.47402791  0.57937394    -0.87400
C242        C  0.28835957  0.35572083  0.54282429     0.88600
Mg243      Mg  0.37061487  0.54335563  0.57008352     1.58100
O244        O  0.41266763  0.41197694  0.54506366    -0.87200
O245        O  0.40045540  0.44619557  0.59261976    -0.74500
C246        C  0.44088469  0.56436775  0.46358303     0.93600
O247        O  0.27439296  0.45174544  0.54461880    -0.74300
O248        O  0.42563039  0.58376211  0.47711491    -0.81800
Mg249      Mg  0.28288466  0.41704187  0.57600480     1.58000
C250        C  0.48128936  0.41970218  0.48581404     0.93600
O251        O  0.28267358  0.37846007  0.60795776    -0.80100
H252        H  0.47348126  0.43347661  0.56120667    -0.05400
C253        C  0.35697761  0.44188880  0.49192454     0.88500
O254        O  0.44474658  0.56252501  0.55786365    -0.74600
O255        O  0.31272546  0.38286067  0.55771297    -0.87400
O256        O  0.45616846  0.39348673  0.50154912    -0.80200
C257        C  0.36019848  0.28708803  0.54860524     0.93700
C258        C  0.29674616  0.35005385  0.61361886     0.93500
Mg259      Mg  0.46018056  0.50037272  0.50256168     1.58000
O260        O  0.44900462  0.53175930  0.46976773    -0.80100
O261        O  0.47891634  0.47286126  0.53416019    -0.74300
O262        O  0.33837038  0.30311521  0.55949752    -0.80200
O263        O  0.25300592  0.45604227  0.59491061    -0.81900
O264        O  0.41677774  0.62854374  0.52760045    -0.80200
C265        C  0.45553478  0.43884153  0.54746095     0.88000
O266        O  0.43843256  0.53989204  0.52316917    -0.87300
O267        O  0.38915981  0.44096910  0.50238976    -0.87500
O268        O  0.35059598  0.47742154  0.49261350    -0.74500
Mg269      Mg  0.36920192  0.37722797  0.57324511     1.58000
O270        O  0.38191585  0.30762860  0.53085536    -0.81900
H271        H  0.40263001  0.50505067  0.60479909    -0.05600
O272        O  0.34114845  0.51722422  0.53813163    -0.87200
H273        H  0.28329980  0.49721690  0.51984604    -0.05400
H274        H  0.50048437  0.57377840  0.53883659    -0.05600
C275        C  0.29908609  0.48967682  0.53382732     0.87900
C276        C  0.38665982  0.47597644  0.59323340     0.88500
C277        C  0.46280098  0.55966032  0.53968930     0.88600
H278        H  0.33369373  0.41181410  0.48186566    -0.05600
O279        O  0.30705369  0.34845993  0.52597921    -0.74600
Mg280      Mg  0.38451289  0.55166461  0.50991225     1.58000
H281        H  0.25037091  0.33811596  0.54406404    -0.05600
C282        C  0.26312618  0.49890597  0.59387276     0.93600
O283        O  0.38666165  0.61440318  0.56181879    -0.81800
C284        C  0.40960487  0.64256403  0.54643050     0.93600
O285        O  0.32500790  0.34302844  0.60223162    -0.81800
Mg286      Mg  0.38374735  0.37481457  0.51511514     1.58200
O287        O  0.30006704  0.53064577  0.58435942    -0.80200
O288        O  0.48422227  0.45899867  0.48135247    -0.81900
O289        O  0.14075782  0.47356887  0.90575928    -0.87400
C290        C  0.09288253  0.35503539  0.94171495     0.88600
Mg291      Mg  0.19672994  0.54281429  0.91497474     1.58100
O292        O  0.02378810  0.41025518  0.94076989    -0.87200
O293        O  0.06888067  0.44569745  0.89314131    -0.74500
C294        C  0.14955348  0.56361879  0.02188912     0.93600
O295        O  0.20203490  0.45113761  0.93971883    -0.74300
O296        O  0.18393144  0.58312080  0.00822466    -0.81800
Mg297      Mg  0.15813666  0.41667644  0.90839832     1.58000
C298        C  0.96431305  0.41740487  0.00058492     0.93600
O299        O  0.11892676  0.37853722  0.87645871    -0.80100
H300        H  0.98363197  0.43139866  0.92515569    -0.05400
C301        C  0.11138889  0.44102106  0.99335139     0.88500
O302        O  0.14212642  0.56205614  0.92778963    -0.74600
O303        O  0.09478995  0.38211657  0.92701280    -0.87400
O304        O  0.96331488  0.39052432  0.98515761    -0.80200
C305        C  0.95246427  0.28523585  0.93687986     0.93700
C306        C  0.07635092  0.35019953  0.87091316     0.93500
Mg307      Mg  0.06561004  0.49881069  0.98327887     1.58000
O308        O  0.10887796  0.53064384  0.01586333    -0.80100
O309        O  0.01854474  0.47106894  0.95199683    -0.74300
O310        O  0.98980818  0.30192023  0.92557894    -0.80200
O311        O  0.22645432  0.45581154  0.88917202    -0.81900
O312        O  0.23676020  0.62819456  0.95737856    -0.80200
C313        C  0.00748552  0.43694089  0.93868512     0.88000
O314        O  0.12641544  0.53874958  0.96239084    -0.87300
O315        O  0.07781630  0.43965768  0.98312001    -0.87500
O316        O  0.15308946  0.47684433  0.99249919    -0.74500
Mg317      Mg  0.03205754  0.37628236  0.91213703     1.58000
O318        O  0.95171362  0.30538693  0.95488205    -0.81900
H319        H  0.12491919  0.50494817  0.88093401    -0.05600
O320        O  0.20104076  0.51665565  0.94675207    -0.87200
H321        H  0.23903247  0.49615676  0.96460765    -0.05400
H322        H  0.09797142  0.57296746  0.94727146    -0.05600
C323        C  0.21549246  0.48890786  0.95073716     0.87900
C324        C  0.11237394  0.47563865  0.89231058     0.88500
C325        C  0.12149270  0.55882463  0.94609508     0.88600
H326        H  0.10520285  0.41110268  0.00336019    -0.05600
O327        O  0.06765027  0.34757413  0.95883444    -0.74600
Mg328      Mg  0.19264304  0.55111481  0.97520203     1.58000
H329        H  0.11349652  0.33772365  0.94008558    -0.05600
C330        C  0.25926129  0.49859381  0.89038526     0.93600
O331        O  0.25206540  0.61368956  0.92308863    -0.81800
C332        C  0.25758998  0.64203813  0.93845362     0.93600
O333        O  0.04134144  0.34281796  0.88260363    -0.81800
Mg334      Mg  0.01713093  0.37303934  0.97052515     1.58200
O335        O  0.25422408  0.53017074  0.90020661    -0.80200
O336        O  0.00049336  0.45710980  0.00473133    -0.81900
O337        O  0.13555234  0.70021612  0.24542259    -0.87400
C338        C  0.08554952  0.76655847  0.20758885     0.88600
Mg339      Mg  0.19181598  0.68690396  0.23692498     1.58100
O340        O  0.01950876  0.64238975  0.21056257    -0.87200
O341        O  0.06432723  0.65689233  0.25872186    -0.74500
C342        C  0.14643673  0.61403834  0.13057035     0.93600
O343        O  0.19591189  0.78185625  0.21046203    -0.74300
O344        O  0.18057425  0.62969315  0.14441799    -0.81800
Mg345      Mg  0.15189438  0.77388803  0.24147181     1.58000
C346        C  0.96003018  0.57200382  0.15117200     0.93600
O347        O  0.11240108  0.77423044  0.27306447    -0.80100
H348        H  0.98025869  0.58185731  0.22686449    -0.05400
C349        C  0.10562036  0.69742167  0.15768080     0.88500
O350        O  0.13758209  0.61224666  0.22490244    -0.74600
O351        O  0.08839815  0.74297835  0.22283788    -0.87400
O352        O  0.95815540  0.59622016  0.16715278    -0.80200
C353        C  0.94516175  0.69224977  0.21288493     0.93700
C354        C  0.06977381  0.76001894  0.27850255     0.93500
Mg355      Mg  0.06161794  0.59453380  0.16870125     1.58000
O356        O  0.10538273  0.60564846  0.13630777    -0.80100
O357        O  0.01453877  0.57604010  0.20003126    -0.74300
O358        O  0.98333849  0.71625364  0.22329283    -0.80200
O359        O  0.22046275  0.80509003  0.26067998    -0.81900
O360        O  0.23236722  0.63994735  0.19546980    -0.80200
C361        C  0.00370466  0.59960391  0.21315923     0.88000
O362        O  0.12225080  0.61720216  0.18987711    -0.87300
O363        O  0.07249088  0.66522700  0.16807963    -0.87500
O364        O  0.14768011  0.70429584  0.15875276    -0.74500
Mg365      Mg  0.02644354  0.68657742  0.23833699     1.58000
O366        O  0.94438994  0.66994357  0.19541301    -0.81900
H367        H  0.12133810  0.65614089  0.27147075    -0.05600
O368        O  0.19557317  0.71525618  0.20471483    -0.87200
H369        H  0.23335772  0.77266771  0.18621434    -0.05400
H370        H  0.09396820  0.55573762  0.20601470    -0.05600
C371        C  0.20976689  0.75712297  0.20010579     0.87900
C372        C  0.10797434  0.67114412  0.25951451     0.88500
C373        C  0.11730676  0.59348233  0.20667703     0.88600
H374        H  0.09872862  0.72025007  0.14733981    -0.05600
O375        O  0.06000879  0.74698374  0.19069368    -0.74600
Mg376      Mg  0.18801055  0.67134076  0.17688835     1.58000
H377        H  0.10545584  0.80460946  0.20856717    -0.05600
C378        C  0.25360992  0.79551267  0.25991712     0.93600
O379        O  0.24740345  0.67110549  0.22951454    -0.81800
C380        C  0.25303692  0.64769426  0.21446470     0.93600
O381        O  0.03478316  0.73153880  0.26697256    -0.81800
Mg382      Mg  0.01082224  0.66963134  0.18021633     1.58200
O383        O  0.24889907  0.75831156  0.25084502    -0.80200
O384        O  0.99684189  0.56980534  0.14682145    -0.81900
O385        O  0.58931086  0.92399557  0.91227433    -0.87400
C386        C  0.70551009  0.96740494  0.87523058     0.88600
Mg387      Mg  0.51917523  0.86842164  0.90397192     1.58100
O388        O  0.65228777  0.03815710  0.87605965    -0.87200
O389        O  0.61951238  0.99650474  0.92444663    -0.74500
C390        C  0.49509142  0.91063139  0.79641898     0.93600
O391        O  0.60845141  0.85934763  0.87891161    -0.74300
O392        O  0.47589590  0.87667852  0.81035184    -0.81800
Mg393      Mg  0.64484484  0.90477010  0.90959853     1.58000
C394        C  0.64276874  0.09607604  0.81621547     0.93600
O395        O  0.68449935  0.94543567  0.94098451    -0.80100
H396        H  0.63259526  0.07954251  0.89160020    -0.05400
C397        C  0.61831335  0.94837823  0.82429375     0.88500
O398        O  0.50070853  0.92315863  0.89070087    -0.74600
O399        O  0.67948721  0.96680514  0.89016813    -0.87400
O400        O  0.67083560  0.09695254  0.83100103    -0.80200
C401        C  0.77690505  0.10795834  0.87892930     0.93700
C402        C  0.71407328  0.98797837  0.94606538     0.93500
Mg403      Mg  0.56182275  0.99573603  0.83435762     1.58000
O404        O  0.52831952  0.95144386  0.80213943    -0.80100
O405        O  0.59149689  0.04388995  0.86523631    -0.74300
O406        O  0.76089431  0.06993667  0.88961694    -0.80200
O407        O  0.60560755  0.83771110  0.92967062    -0.81900
O408        O  0.43189194  0.82539574  0.86190202    -0.80200
C409        C  0.62613716  0.05505935  0.87824189     0.88000
O410        O  0.52206623  0.93598089  0.85576746    -0.87300
O411        O  0.62057789  0.98276020  0.83413121    -0.87500
O412        O  0.58219448  0.90698215  0.82572812    -0.74500
Mg413      Mg  0.68774588  0.03088556  0.90447752     1.58000
O414        O  0.75642135  0.10910800  0.86112119    -0.81900
H415        H  0.56009001  0.94180488  0.93734879    -0.05600
O416        O  0.54346138  0.86149712  0.87207767    -0.87200
H417        H  0.56205247  0.82150908  0.85461461    -0.05400
H418        H  0.48945406  0.96632056  0.87066976    -0.05600
C419        C  0.57035797  0.84597758  0.86817932     0.87900
C420        C  0.58873821  0.95329545  0.92565618     0.88500
C421        C  0.50310871  0.94242171  0.87208982     0.88600
H422        H  0.64770037  0.95356374  0.81414132    -0.05600
O423        O  0.71278008  0.99217223  0.85794159    -0.74600
Mg424      Mg  0.50849484  0.86888677  0.84354114     1.58000
H425        H  0.72216109  0.94616790  0.87683297    -0.05600
C426        C  0.56262147  0.80530009  0.92886498     0.93600
O427        O  0.44752461  0.81400685  0.89670415    -0.81800
C428        C  0.41873581  0.80630764  0.88123000     0.93600
O429        O  0.72261815  0.02273640  0.93389189    -0.81800
Mg430      Mg  0.68806523  0.04328916  0.84603622     1.58200
O431        O  0.53103049  0.81058728  0.91918911    -0.80200
O432        O  0.60273998  0.06002518  0.81250989    -0.81900
O433        O  0.35597528  0.92215621  0.57161200    -0.87400
C434        C  0.28789329  0.96921692  0.61088751     0.88600
Mg435      Mg  0.37170485  0.86954681  0.58035445     1.58100
O436        O  0.41137129  0.03867657  0.60857103    -0.87200
O437        O  0.39808065  0.99511309  0.56068971    -0.74500
C438        C  0.44253784  0.91159655  0.68768635     0.93600
O439        O  0.27544304  0.86059742  0.60658601    -0.74300
O440        O  0.42706483  0.87756154  0.67374686    -0.81800
Mg441      Mg  0.28455084  0.90604532  0.57608100     1.58000
C442        C  0.48157084  0.09747374  0.66780761     0.93600
O443        O  0.28417473  0.94647133  0.54485922    -0.80100
H444        H  0.47167435  0.07912619  0.59232749    -0.05400
C445        C  0.35738736  0.95048215  0.66066832     0.88500
O446        O  0.44536445  0.92490955  0.59296494    -0.74600
O447        O  0.31262353  0.96804122  0.59574450    -0.87400
O448        O  0.45541920  0.09876386  0.65260496    -0.80200
C449        C  0.35822930  0.11003726  0.60670526     0.93700
C450        C  0.29603379  0.98883632  0.54001898     0.93500
Mg451      Mg  0.46071883  0.99673930  0.64983022     1.58000
O452        O  0.45055439  0.95258704  0.68203008    -0.80100
O453        O  0.47822380  0.04437045  0.61877386    -0.74300
O454        O  0.33462019  0.07156449  0.59650267    -0.80200
O455        O  0.25485338  0.83896241  0.55592807    -0.81900
O456        O  0.41799305  0.82654003  0.62222772    -0.80200
C457        C  0.45423957  0.05518174  0.60591297     0.88000
O458        O  0.43965226  0.93684827  0.62840878    -0.87300
O459        O  0.38937917  0.98443926  0.65060713    -0.87500
O460        O  0.35146654  0.90884133  0.65918603    -0.74500
Mg461      Mg  0.36697422  0.03146714  0.58091026     1.58000
O462        O  0.38100217  0.11143306  0.62411883    -0.81900
H463        H  0.40282233  0.94107872  0.54703942    -0.05600
O464        O  0.34281671  0.86326033  0.61271012    -0.87200
H465        H  0.28510993  0.82304001  0.63061688    -0.05400
H466        H  0.50127130  0.96752907  0.61238240    -0.05600
C467        C  0.30061675  0.84747645  0.61701427     0.87900
C468        C  0.38551547  0.95187409  0.55899970     0.88500
C469        C  0.46366186  0.94357431  0.61152093     0.88600
H470        H  0.33385769  0.95626010  0.67104476    -0.05600
O471        O  0.30623129  0.99454668  0.62798075    -0.74600
Mg472      Mg  0.38593303  0.87023725  0.64088939     1.58000
H473        H  0.24994732  0.94815442  0.60961254    -0.05600
C474        C  0.26483341  0.80611260  0.55651359     0.93600
O475        O  0.39054459  0.81584061  0.58752661    -0.81800
C476        C  0.41179021  0.80779570  0.60282078     0.93600
O477        O  0.32211292  0.02360009  0.55222883    -0.81800
Mg478      Mg  0.38300574  0.04531387  0.63893589     1.58200
O479        O  0.30170980  0.81084766  0.56594865    -0.80200
O480        O  0.48477664  0.06107563  0.67176701    -0.81900
O481        O  0.69696380  0.58956513  0.07942926    -0.87400
C482        C  0.76618739  0.70749609  0.04280101     0.88600
Mg483      Mg  0.68292983  0.52009466  0.07018181     1.58100
O484        O  0.64195001  0.65197518  0.04464728    -0.87200
O485        O  0.65353956  0.61783824  0.09233827    -0.74500
C486        C  0.61339121  0.49899394  0.96343424     0.93600
O487        O  0.77962038  0.61113935  0.04488380    -0.74300
O488        O  0.62844073  0.47960069  0.97707954    -0.81800
Mg489      Mg  0.77112939  0.64622409  0.07614600     1.58000
C490        C  0.57348615  0.64457352  0.98523005     0.93600
O491        O  0.77128632  0.68513177  0.10800872    -0.80100
H492        H  0.58110843  0.63110329  0.06059511    -0.05400
C493        C  0.69772667  0.62162044  0.99181749     0.88500
O494        O  0.60901661  0.50141353  0.05768899    -0.74600
O495        O  0.74162648  0.68045815  0.05764348    -0.87400
O496        O  0.59919869  0.67110895  0.00078918    -0.80200
C497        C  0.69468262  0.77660208  0.04849313     0.93700
C498        C  0.75738374  0.71372645  0.11358608     0.93500
Mg499      Mg  0.59427954  0.56362383  0.00214579     1.58000
O500        O  0.60545781  0.53182060  0.96947412    -0.80100
O501        O  0.57551058  0.59146340  0.03360049    -0.74300
O502        O  0.71703867  0.76069112  0.05903146    -0.80200
O503        O  0.80071296  0.60709966  0.09521410    -0.81900
O504        O  0.63686604  0.43467823  0.02762235    -0.80200
C505        C  0.59901166  0.62545514  0.04693052     0.88000
O506        O  0.61565741  0.52393736  0.02296532    -0.87300
O507        O  0.66547567  0.62286518  0.00203899    -0.87500
O508        O  0.70380051  0.58590411  0.99268892    -0.74500
Mg509      Mg  0.68537499  0.68672720  0.07294343     1.58000
O510        O  0.67288778  0.75630506  0.03069186    -0.81900
H511        H  0.65083460  0.55887761  0.10468048    -0.05600
O512        O  0.71263079  0.54596340  0.03828057    -0.87200
H513        H  0.77054799  0.56535975  0.02020021    -0.05400
H514        H  0.55351727  0.49051365  0.03851128    -0.05600
C515        C  0.75478755  0.57319253  0.03408701     0.87900
C516        C  0.66710629  0.58788227  0.09311934     0.88500
C517        C  0.59115594  0.50437646  0.03945228     0.88600
H518        H  0.72134868  0.65157125  0.98181167    -0.05600
O519        O  0.74771248  0.71501579  0.02593112    -0.74600
Mg520      Mg  0.66941629  0.51164540  0.00995574     1.58000
H521        H  0.80415722  0.72484044  0.04411823    -0.05600
C522        C  0.79049724  0.56420153  0.09414310     0.93600
O523        O  0.66642060  0.44887714  0.06198313    -0.81800
C524        C  0.64380764  0.42068965  0.04651666     0.93600
O525        O  0.72939997  0.72096347  0.10206533    -0.81800
Mg526      Mg  0.67120312  0.68919383  0.01479183     1.58200
O527        O  0.75344425  0.53250596  0.08461442    -0.80200
O528        O  0.57032726  0.60512561  0.98080995    -0.81900
O529        O  0.47155466  0.36438336  0.73882509    -0.87400
C530        C  0.35303160  0.29710285  0.77519994     0.88600
Mg531      Mg  0.54032641  0.37664177  0.74819561     1.58100
O532        O  0.41033306  0.42159051  0.77350861    -0.87200
O533        O  0.44525318  0.40964721  0.72611827    -0.74500
C534        C  0.56321818  0.44813700  0.85453525     0.93600
O535        O  0.44786093  0.28171148  0.77363590    -0.74300
O536        O  0.58235547  0.43275783  0.84092527    -0.81800
Mg537      Mg  0.41358725  0.29078480  0.74219923     1.58000
C538        C  0.41935129  0.48998024  0.83294303     0.93600
O539        O  0.37512154  0.29097163  0.71027914    -0.80100
H540        H  0.43215466  0.48264725  0.75759746    -0.05400
C541        C  0.44018481  0.36493410  0.82645945     0.88500
O542        O  0.56089567  0.45132518  0.76039647    -0.74600
O543        O  0.38038568  0.32157603  0.76044452    -0.87400
O544        O  0.39225020  0.46427671  0.81753260    -0.80200
C545        C  0.28525232  0.36947965  0.77002386     0.93700
C546        C  0.34764217  0.30614605  0.70456599     0.93500
Mg547      Mg  0.49927179  0.46797059  0.81577535     1.58000
O548        O  0.53063158  0.45637327  0.84845349    -0.80100
O549        O  0.47188910  0.48737446  0.78440521    -0.74300
O550        O  0.30168226  0.34906769  0.75831933    -0.80200
O551        O  0.45136569  0.25961739  0.72334894    -0.81900
O552        O  0.62592040  0.42327854  0.79022177    -0.80200
C553        C  0.43749821  0.46441008  0.77121202     0.88000
O554        O  0.53796950  0.44545578  0.79500086    -0.87300
O555        O  0.43942476  0.39713750  0.81595028    -0.87500
O556        O  0.47548786  0.35818472  0.82574189    -0.74500
Mg557      Mg  0.37597333  0.37890876  0.74508769     1.58000
O558        O  0.30585338  0.39032631  0.78796780    -0.81900
H559        H  0.50357188  0.41092919  0.71385709    -0.05600
O560        O  0.51407669  0.34778947  0.78013318    -0.87200
H561        H  0.49301719  0.28989883  0.79848045    -0.05400
H562        H  0.57274813  0.50742241  0.77936845    -0.05600
C563        C  0.48590395  0.30591943  0.78446414     0.87900
C564        C  0.47430935  0.39496119  0.72528871     0.88500
C565        C  0.55809894  0.46965434  0.77851664     0.88600
H566        H  0.41018020  0.34196995  0.83659387    -0.05600
O567        O  0.34623981  0.31563756  0.79222772    -0.74600
Mg568      Mg  0.54940198  0.39138069  0.80822977     1.58000
H569        H  0.33496967  0.25912520  0.77371812    -0.05600
C570        C  0.49392685  0.26883560  0.72451444     0.93600
O571        O  0.61075479  0.39089213  0.75644862    -0.81800
C572        C  0.63939414  0.41504914  0.77148596     0.93600
O573        O  0.34192496  0.33541788  0.71583439    -0.81800
Mg574      Mg  0.37326934  0.39214744  0.80343482     1.58200
O575        O  0.52610820  0.30551799  0.73404193    -0.80200
O576        O  0.45875580  0.49285650  0.83710600    -0.81900
C577        C  0.57828759  0.45661526  0.87770546    -0.17600
C578        C  0.58800537  0.46416874  0.89737051     0.06500
C579        C  0.59761092  0.47402352  0.92060775     0.08300
C580        C  0.60498883  0.48390750  0.94026452    -0.18500
C581        C  0.50623227  0.23676958  0.71448302    -0.17600
C582        C  0.51303227  0.20807403  0.70528211     0.06500
C583        C  0.51359397  0.17152553  0.69322553     0.08300
C584        C  0.50480661  0.13795096  0.68183942    -0.18500
C585        C  0.54938552  0.76099028  0.93927064    -0.17600
C586        C  0.54252799  0.72545326  0.94847769     0.06500
C587        C  0.54208938  0.68806327  0.96028441     0.08300
C588        C  0.55071175  0.66273925  0.97138618    -0.18500
C589        C  0.45134520  0.90427017  0.71076456    -0.17600
C590        C  0.45911084  0.90157876  0.73038996     0.06500
C591        C  0.46918198  0.90126982  0.75362785     0.08300
C592        C  0.47932069  0.90351976  0.77328071    -0.18500
C593        C  0.82194779  0.55102272  0.10422464    -0.17600
C594        C  0.85032977  0.54363236  0.11339678     0.06500
C595        C  0.88656209  0.54220377  0.12540809     0.08300
C596        C  0.91983625  0.54998246  0.13684418    -0.18500
C597        C  0.40176452  0.51282049  0.84704684    -0.17600
C598        C  0.37662441  0.52093244  0.85853280     0.06500
C599        C  0.33922761  0.51943854  0.87073667     0.08300
C600        C  0.30363598  0.51184538  0.88009860    -0.18500
C601        C  0.15603603  0.57879084  0.04505736    -0.17600
C602        C  0.15781856  0.58853851  0.06470882     0.06500
C603        C  0.15694088  0.59814912  0.08791261     0.08300
C604        C  0.15383947  0.60554192  0.10751296    -0.18500
C605        C  0.28729314  0.69084569  0.93204305    -0.17600
C606        C  0.31102143  0.72212116  0.91893449     0.06500
C607        C  0.33948925  0.75128210  0.90106788     0.08300
C608        C  0.37024305  0.77567018  0.88786486    -0.18500
C609        C  0.81687609  0.14973432  0.88862120    -0.17600
C610        C  0.84667694  0.18023749  0.90057438     0.06500
C611        C  0.88029339  0.21414279  0.91586947     0.08300
C612        C  0.91074911  0.24444571  0.92765498    -0.18500
C613        C  0.28257938  0.32548228  0.63399575    -0.17600
C614        C  0.28424564  0.30573629  0.65031818     0.06500
C615        C  0.30070693  0.29154890  0.66839813     0.08300
C616        C  0.32203255  0.29140564  0.68444352    -0.18500
C617        C  0.42857905  0.69144090  0.55262178    -0.17600
C618        C  0.43597125  0.72311178  0.56545168     0.06500
C619        C  0.43627225  0.75269312  0.58300798     0.08300
C620        C  0.42957969  0.77719883  0.59600094    -0.18500
C621        C  0.36149388  0.24664156  0.55797375    -0.17600
C622        C  0.36181293  0.21644391  0.56973736     0.06500
C623        C  0.36152081  0.18251920  0.58496874     0.08300
C624        C  0.36060295  0.15193381  0.59689844    -0.18500
C625        C  0.44927333  0.57914742  0.44037985    -0.17600
C626        C  0.45659847  0.58868984  0.42069735     0.06500
C627        C  0.46609396  0.59811394  0.39743271     0.08300
C628        C  0.47568126  0.60532585  0.37775012    -0.18500
C629        C  0.28271682  0.62885005  0.22121000    -0.17600
C630        C  0.30663740  0.62166114  0.23433348     0.06500
C631        C  0.33564873  0.62184049  0.25210870     0.08300
C632        C  0.36698937  0.62932245  0.26514403    -0.18500
C633        C  0.80674735  0.68645207  0.26090648    -0.17600
C634        C  0.83720318  0.68637090  0.24928536     0.06500
C635        C  0.87165482  0.68736303  0.23422849     0.08300
C636        C  0.90277498  0.68902958  0.22247406    -0.18500
C637        C  0.73403399  0.77201956  0.18528182    -0.17600
C638        C  0.75468878  0.77188708  0.16898785     0.06500
C639        C  0.77020803  0.75777910  0.15052417     0.08300
C640        C  0.77143112  0.73821949  0.13402630    -0.18500
C641        C  0.50135385  0.30249798  0.43865870    -0.17600
C642        C  0.50905061  0.33806384  0.44810463     0.06500
C643        C  0.51095108  0.37568013  0.46030232     0.08300
C644        C  0.50337684  0.40126330  0.47174697    -0.18500
C645        C  0.29805432  0.82790040  0.26980799    -0.17600
C646        C  0.33361613  0.85704622  0.27880978     0.06500
C647        C  0.37072123  0.89407509  0.29066504     0.08300
C648        C  0.39539092  0.92782355  0.30198652    -0.18500
C649        C  0.28225898  0.99953838  0.51953623    -0.17600
C650        C  0.28263467  0.01859278  0.50257687     0.06500
C651        C  0.29609351  0.04535714  0.48316390     0.08300
C652        C  0.31467475  0.06438153  0.46619516    -0.18500
C653        C  0.77243958  0.06466250  0.01987599    -0.17600
C654        C  0.77126353  0.04534751  0.00287511     0.06500
C655        C  0.75696080  0.01817222  0.98357197     0.08300
C656        C  0.73800425  0.99885183  0.96669074    -0.18500
C657        C  0.82426118  0.30256350  0.04744979    -0.17600
C658        C  0.85325211  0.33766201  0.03807610     0.06500
C659        C  0.89011174  0.37445501  0.02597391     0.08300
C660        C  0.92373751  0.39938744  0.01463436    -0.18500
C661        C  0.57380619  0.16147588  0.27308034    -0.17600
C662        C  0.58411899  0.16359201  0.25347927     0.06500
C663        C  0.59443692  0.16296237  0.23032469     0.08300
C664        C  0.60243847  0.15996667  0.21078049    -0.18500
C665        C  0.62535820  0.28718260  0.09628268    -0.17600
C666        C  0.61810955  0.31113270  0.08318079     0.06500
C667        C  0.61797652  0.34032582  0.06554315     0.08300
C668        C  0.62506398  0.37183322  0.05268137    -0.18500
C669        C  0.69287483  0.81648847  0.05828142    -0.17600
C670        C  0.69223549  0.84633743  0.07021236     0.06500
C671        C  0.69225823  0.88012860  0.08547903     0.08300
C672        C  0.69301934  0.91079040  0.09732292    -0.18500
C673        C  0.55073544  0.82779168  0.21514187    -0.17600
C674        C  0.54413777  0.85665398  0.20593228     0.06500
C675        C  0.54318980  0.89307618  0.19387942     0.08300
C676        C  0.55108908  0.92634097  0.18243105    -0.18500
C677        C  0.05901630  0.77430963  0.29881022    -0.17600
C678        C  0.03876708  0.77394952  0.31535424     0.06500
C679        C  0.01005014  0.76029729  0.33413820     0.08300
C680        C  0.98967856  0.74154342  0.35083568    -0.18500
C681        C  0.65121208  0.54780129  0.34652061    -0.17600
C682        C  0.67744410  0.54111195  0.35794762     0.06500
C683        C  0.71575409  0.54395301  0.36993379     0.08300
C684        C  0.75179105  0.55236747  0.37915088    -0.18500
C685        C  0.76753119  0.37474460  0.43103917    -0.17600
C686        C  0.74276073  0.34348959  0.41809550     0.06500
C687        C  0.71324174  0.31430646  0.40045651     0.08300
C688        C  0.68195337  0.28995125  0.38744082    -0.18500
C689        C  0.23709817  0.91162451  0.38792292    -0.17600
C690        C  0.20698138  0.88131924  0.39979211     0.06500
C691        C  0.17314699  0.84824912  0.41523342     0.08300
C692        C  0.14269516  0.81917954  0.42741635    -0.18500
C693        C  0.23309728  0.76200568  0.54613786    -0.17600
C694        C  0.20383438  0.72679083  0.53692859     0.06500
C695        C  0.16622546  0.68999914  0.52516542     0.08300
C696        C  0.13186020  0.66532512  0.51417118    -0.18500
C697        C  0.99381970  0.28988199  0.79912522    -0.17600
C698        C  0.01483585  0.29106537  0.81553753     0.06500
C699        C  0.04464205  0.30613111  0.83396075     0.08300
C700        C  0.06558076  0.32597263  0.85039063    -0.18500
C701        C  0.77091124  0.43458773  0.72021501    -0.17600
C702        C  0.74730147  0.44178495  0.73352988     0.06500
C703        C  0.71892764  0.44173386  0.75158435     0.08300
C704        C  0.68804471  0.43436851  0.76487283    -0.18500
C705        C  0.14888186  0.36966382  0.72278762    -0.17600
C706        C  0.17945427  0.37021541  0.73460533     0.06500
C707        C  0.21351032  0.37037862  0.74971640     0.08300
C708        C  0.24408313  0.37023484  0.76126784    -0.18500
C709        C  0.65962924  0.13671439  0.80233395    -0.17600
C710        C  0.68376977  0.17060799  0.79102880     0.06500
C711        C  0.72022401  0.20777520  0.77900128     0.08300
C712        C  0.75543250  0.23690362  0.76980748    -0.18500
C713        C  0.89894452  0.48506788  0.54442641    -0.17600
C714        C  0.89723845  0.47496035  0.56402914     0.06500
C715        C  0.89817001  0.46502956  0.58720089     0.08300
C716        C  0.90118605  0.45744177  0.60679386    -0.18500
C717        C  0.23186149  0.51209498  0.60408007    -0.17600
C718        C  0.20385269  0.51964489  0.61347253     0.06500
C719        C  0.16798496  0.52106325  0.62574108     0.08300
C720        C  0.13475391  0.51288631  0.63724146    -0.18500
loop_ 
_geom_bond_atom_site_label_1 
_geom_bond_atom_site_label_2 
_geom_bond_distance 
_geom_bond_site_symmetry_2 
_ccdc_geom_bond_type 
O1           Mg3   2.157       .  S
O1           Mg9   2.208       .  S
O1           C36   1.261       .  A
C2           O15   1.235       .  S
C2           O39   1.270       .  A
C2           H41   1.081       .  S
Mg3          O32   2.135       .  S
Mg3          O47   2.301       .  S
Mg3          O43   2.169       .  S
Mg3          O14   2.305       .  S
O4           C25   1.237       .  S
O4          Mg46   2.120       .  S
O4          Mg29   2.148       .  S
O5           C36   1.264       .  A
O5          Mg29   2.281   1_655  S
C6            O8   1.280       .  A
C6           O20   1.279       .  A
C6          C716   1.466       .  S
O7           C35   1.273       .  A
O7           Mg9   2.299       .  S
O8          Mg40   2.333       .  S
Mg9          O15   2.120       .  S
Mg9          O23   2.262       .  S
Mg9          O11   2.308       .  S
C10          O48   1.271       .  A
C10          O16   1.271       .  A
C10         C720   1.431       .  S
O11          C18   1.274       .  A
H12          C25   1.081       .  S
C13          O27   1.242       .  S
C13          O28   1.281       .  A
C13          H38   1.081       .  S
O14          C37   1.273       .  A
O15         Mg29   2.158   1_655  S
O16         Mg46   2.286       .  S
C17          O30   1.277       .  A
C17          O22   1.262       .  A
C17         C705   1.460       .  S
C18          O45   1.263   1_655  A
C18         C697   1.418       .  S
Mg19         O26   2.156       .  S
Mg19         O27   2.162       .  S
Mg19         O20   2.348       .  S
Mg19         O21   2.321   1_655  S
Mg19         O48   2.272   1_655  S
O21          C25   1.274       .  A
O22         Mg29   2.264       .  S
O23          C42   1.271       .  A
O24          C44   1.292       .  A
O24         Mg40   2.437       .  S
O26          C37   1.239       .  S
O26         Mg40   2.140       .  S
O27         Mg46   2.221   1_655  S
O28         Mg40   2.352       .  S
Mg29         O45   2.193       .  S
O30         Mg46   2.372       .  S
H31          C36   1.081       .  S
O32          C35   1.239       .  S
O32         Mg40   2.146       .  S
H33          C35   1.081       .  S
H34          C37   1.081       .  S
O39         Mg46   2.307   1_655  S
C42          O47   1.272       .  A
C42         C712   1.433       .  S
O43          C44   1.260       .  A
C44         C701   1.446       .  S
O49         Mg51   2.158       .  S
O49         Mg57   2.208       .  S
O49          C84   1.261       .  A
C50          O63   1.235       .  S
C50          O87   1.271       .  A
C50          H89   1.081       .  S
Mg51         O80   2.140       .  S
Mg51         O95   2.302       .  S
Mg51         O91   2.168       .  S
Mg51         O62   2.302       .  S
O52          C73   1.237       .  S
O52         Mg94   2.121       .  S
O52         Mg77   2.152       .  S
O53          C84   1.264       .  A
O53         Mg77   2.282   1_655  S
C54          O56   1.281       .  A
C54          O68   1.278       .  A
C54         C713   1.466       .  S
O55          C83   1.273       .  A
O55         Mg57   2.301       .  S
O56         Mg88   2.340       .  S
Mg57         O63   2.123       .  S
Mg57         O71   2.268       .  S
Mg57         O59   2.311       .  S
C58          O96   1.271       .  A
C58          O64   1.271       .  A
C58         C696   1.432       .  S
O59          C66   1.275       .  A
H60          C73   1.081       .  S
C61          O75   1.242       .  S
C61          O76   1.281       .  A
C61          H86   1.081       .  S
O62          C85   1.273       .  A
O63         Mg77   2.158   1_655  S
O64         Mg94   2.285       .  S
C65          O78   1.277       .  A
C65          O70   1.261       .  A
C65         C692   1.462       .  S
C66          O93   1.264   1_655  A
C66         C680   1.419       .  S
Mg67         O74   2.159       .  S
Mg67         O75   2.167       .  S
Mg67         O68   2.343       .  S
Mg67         O69   2.318   1_655  S
Mg67         O96   2.276   1_655  S
O69          C73   1.273       .  A
O70         Mg77   2.263       .  S
O71          C90   1.272       .  A
O72          C92   1.293       .  A
O72         Mg88   2.443       .  S
O74          C85   1.238       .  S
O74         Mg88   2.143       .  S
O75         Mg94   2.222   1_655  S
O76         Mg88   2.352       .  S
Mg77         O93   2.195       .  S
O78         Mg94   2.376       .  S
H79          C84   1.081       .  S
O80          C83   1.239       .  S
O80         Mg88   2.149       .  S
H81          C83   1.081       .  S
H82          C85   1.081       .  S
O87         Mg94   2.310   1_655  S
C90          O95   1.272       .  A
C90         C684   1.435       .  S
O91          C92   1.260       .  A
C92         C685   1.448       .  S
O97         Mg99   2.159       .  S
O97        Mg105   2.207       .  S
O97         C132   1.261       .  A
C98         O111   1.236       .  S
C98         O135   1.271       .  A
C98         H137   1.081       .  S
Mg99        O128   2.137       .  S
Mg99        O143   2.308       .  S
Mg99        O139   2.174       .  S
Mg99        O110   2.306       .  S
O100        C121   1.237       .  S
O100       Mg142   2.118       .  S
O100       Mg125   2.151       .  S
O101        C132   1.264       .  A
O101       Mg125   2.282       .  S
C102        O104   1.281       .  A
C102        O116   1.279       .  A
C102        C664   1.467       .  S
O103        C131   1.273       .  A
O103       Mg105   2.301       .  S
O104       Mg136   2.337       .  S
Mg105       O111   2.121       .  S
Mg105       O119   2.264       .  S
Mg105       O107   2.307       .  S
C106        O144   1.271   1_565  A
C106        O112   1.270       .  A
C106        C676   1.432       .  S
O107        C114   1.274       .  A
H108        C121   1.081   1_565  S
C109        O123   1.242       .  S
C109        O124   1.281       .  A
C109        H134   1.081       .  S
O110        C133   1.273       .  A
O111       Mg125   2.158       .  S
O112       Mg142   2.285   1_565  S
C113        O126   1.277       .  A
C113        O118   1.261       .  A
C113        C672   1.461       .  S
C114        O141   1.264       .  A
C114        C653   1.419       .  S
Mg115       O122   2.160       .  S
Mg115       O123   2.161       .  S
Mg115       O116   2.348       .  S
Mg115       O117   2.323       .  S
Mg115       O144   2.278       .  S
O117        C121   1.274       .  A
O118       Mg125   2.264   1_565  S
O119        C138   1.272       .  A
O120        C140   1.292       .  A
O120       Mg136   2.440       .  S
O122        C133   1.239       .  S
O122       Mg136   2.142       .  S
O123       Mg142   2.225       .  S
O124       Mg136   2.353       .  S
Mg125       O141   2.199       .  S
O126       Mg142   2.375   1_565  S
H127        C132   1.081       .  S
O128        C131   1.240       .  S
O128       Mg136   2.148       .  S
H129        C131   1.081       .  S
H130        C133   1.081       .  S
O135       Mg142   2.308       .  S
C138        O143   1.273       .  A
C138        C657   1.436       .  S
O139        C140   1.261       .  A
C140        C665   1.448       .  S
O145       Mg147   2.158       .  S
O145       Mg153   2.208       .  S
O145        C180   1.261       .  A
C146        O159   1.235       .  S
C146        O183   1.270       .  A
C146        H185   1.081       .  S
Mg147       O176   2.140       .  S
Mg147       O191   2.298       .  S
Mg147       O187   2.170       .  S
Mg147       O158   2.301       .  S
O148        C169   1.237       .  S
O148       Mg190   2.121       .  S
O148       Mg173   2.151       .  S
O149        C180   1.263       .  A
O149       Mg173   2.281       .  S
C150        O152   1.281       .  A
C150        O164   1.278       .  A
C150        C661   1.467       .  S
O151        C179   1.273       .  A
O151       Mg153   2.300       .  S
O152       Mg184   2.341       .  S
Mg153       O159   2.121       .  S
Mg153       O167   2.266       .  S
Mg153       O155   2.307       .  S
C154        O192   1.270   1_565  A
C154        O160   1.271       .  A
C154        C648   1.430       .  S
O155        C162   1.274       .  A
H156        C169   1.081   1_565  S
C157        O171   1.242       .  S
C157        O172   1.281       .  A
C157        H182   1.081       .  S
O158        C181   1.272       .  A
O159       Mg173   2.159       .  S
O160       Mg190   2.285   1_565  S
C161        O174   1.278       .  A
C161        O166   1.262       .  A
C161        C689   1.461       .  S
C162        O189   1.264       .  A
C162        C652   1.419       .  S
Mg163       O170   2.155       .  S
Mg163       O171   2.164       .  S
Mg163       O164   2.345       .  S
Mg163       O165   2.320       .  S
Mg163       O192   2.270       .  S
O165        C169   1.274       .  A
O166       Mg173   2.264   1_565  S
O167        C186   1.272       .  A
O168        C188   1.293       .  A
O168       Mg184   2.444       .  S
O170        C181   1.238       .  S
O170       Mg184   2.142       .  S
O171       Mg190   2.226       .  S
O172       Mg184   2.353       .  S
Mg173       O189   2.201       .  S
O174       Mg190   2.378   1_565  S
H175        C180   1.081       .  S
O176        C179   1.240       .  S
O176       Mg184   2.146       .  S
H177        C179   1.081       .  S
H178        C181   1.081       .  S
O183       Mg190   2.307       .  S
C186        O191   1.272       .  A
C186        C641   1.434       .  S
O187        C188   1.260       .  A
C188        C688   1.448       .  S
O193       Mg195   2.157       .  S
O193       Mg201   2.209       .  S
O193        C228   1.261       .  A
C194        O207   1.235       .  S
C194        O231   1.271       .  A
C194        H233   1.081       .  S
Mg195       O224   2.133       .  S
Mg195       O239   2.306       .  S
Mg195       O235   2.175       .  S
Mg195       O206   2.307       .  S
O196        C217   1.237       .  S
O196       Mg238   2.119       .  S
O196       Mg221   2.147       .  S
O197        C228   1.263       .  A
O197       Mg221   2.281       .  S
C198        O200   1.280       .  A
C198        O212   1.278       .  A
C198        C628   1.464       .  S
O199        C227   1.272       .  A
O199       Mg201   2.298       .  S
O200       Mg232   2.332       .  S
Mg201       O207   2.126       .  S
Mg201       O215   2.268       .  S
Mg201       O203   2.307       .  S
C202        O240   1.270       .  A
C202        O208   1.270       .  A
C202        C681   1.431       .  S
O203        C210   1.274       .  A
H204        C217   1.081       .  S
C205        O219   1.242       .  S
C205        O220   1.281       .  A
C205        H230   1.081       .  S
O206        C229   1.274       .  A
O207       Mg221   2.162       .  S
O208       Mg238   2.287       .  S
C209        O222   1.277       .  A
C209        O214   1.262       .  A
C209        C633   1.458       .  S
C210        O237   1.264       .  A
C210        C637   1.418       .  S
Mg211       O218   2.156       .  S
Mg211       O219   2.156       .  S
Mg211       O212   2.344       .  S
Mg211       O213   2.324       .  S
Mg211       O240   2.275       .  S
O213        C217   1.274       .  A
O214       Mg221   2.267       .  S
O215        C234   1.272       .  A
O216        C236   1.291       .  A
O216       Mg232   2.430       .  S
O218        C229   1.239       .  S
O218       Mg232   2.140       .  S
O219       Mg238   2.219       .  S
O220       Mg232   2.351       .  S
Mg221       O237   2.194       .  S
O222       Mg238   2.366       .  S
H223        C228   1.081       .  S
O224        C227   1.239       .  S
O224       Mg232   2.146       .  S
H225        C227   1.081       .  S
H226        C229   1.081       .  S
O231       Mg238   2.306       .  S
C234        O239   1.273       .  A
C234        C673   1.436       .  S
O235        C236   1.261       .  A
C236        C632   1.445       .  S
O241       Mg243   2.157       .  S
O241       Mg249   2.209       .  S
O241        C276   1.261       .  A
C242        O255   1.235       .  S
C242        O279   1.270       .  A
C242        H281   1.081       .  S
Mg243       O272   2.136       .  S
Mg243       O287   2.301       .  S
Mg243       O283   2.172       .  S
Mg243       O254   2.305       .  S
O244        C265   1.237       .  S
O244       Mg286   2.120       .  S
O244       Mg269   2.146       .  S
O245        C276   1.263       .  A
O245       Mg269   2.281       .  S
C246        O248   1.280       .  A
C246        O260   1.278       .  A
C246        C625   1.464       .  S
O247        C275   1.273       .  A
O247       Mg249   2.298       .  S
O248       Mg280   2.332       .  S
Mg249       O255   2.126       .  S
Mg249       O263   2.267       .  S
Mg249       O251   2.306       .  S
C250        O288   1.270       .  A
C250        O256   1.270       .  A
C250        C644   1.431       .  S
O251        C258   1.274       .  A
H252        C265   1.081       .  S
C253        O267   1.242       .  S
C253        O268   1.281       .  A
C253        H278   1.081       .  S
O254        C277   1.273       .  A
O255       Mg269   2.161       .  S
O256       Mg286   2.285       .  S
C257        O270   1.278       .  A
C257        O262   1.263       .  A
C257        C621   1.460       .  S
C258        O285   1.263       .  A
C258        C613   1.417       .  S
Mg259       O266   2.157       .  S
Mg259       O267   2.161       .  S
Mg259       O260   2.344       .  S
Mg259       O261   2.321       .  S
Mg259       O288   2.272       .  S
O261        C265   1.274       .  A
O262       Mg269   2.268       .  S
O263        C282   1.272       .  A
O264        C284   1.292       .  A
O264       Mg280   2.435       .  S
O266        C277   1.239       .  S
O266       Mg280   2.141       .  S
O267       Mg286   2.221       .  S
O268       Mg280   2.352       .  S
Mg269       O285   2.191       .  S
O270       Mg286   2.370       .  S
H271        C276   1.081       .  S
O272        C275   1.239       .  S
O272       Mg280   2.145       .  S
H273        C275   1.081       .  S
H274        C277   1.081       .  S
O279       Mg286   2.306       .  S
C282        O287   1.272       .  A
C282        C717   1.434       .  S
O283        C284   1.260       .  A
C284        C617   1.446       .  S
O289       Mg291   2.157       .  S
O289       Mg297   2.208       .  S
O289        C324   1.261       .  A
C290        O303   1.235       .  S
C290        O327   1.270       .  A
C290        H329   1.081       .  S
Mg291       O320   2.136       .  S
Mg291       O335   2.300       .  S
Mg291       O331   2.169       .  S
Mg291       O302   2.306       .  S
O292        C313   1.237       .  S
O292       Mg334   2.122       .  S
O292       Mg317   2.146       .  S
O293        C324   1.264       .  A
O293       Mg317   2.281       .  S
C294        O296   1.281       .  A
C294        O308   1.278       .  A
C294        C601   1.465       .  S
O295        C323   1.273       .  A
O295       Mg297   2.301       .  S
O296       Mg328   2.336   1_554  S
Mg297       O303   2.123       .  S
Mg297       O311   2.266       .  S
Mg297       O299   2.307       .  S
C298        O336   1.271   1_655  A
C298        O304   1.271   1_554  A
C298        C660   1.433       .  S
O299        C306   1.274       .  A
H300        C313   1.081   1_655  S
C301        O315   1.242       .  S
C301        O316   1.282       .  A
C301        H326   1.081   1_556  S
O302        C325   1.273       .  A
O303       Mg317   2.161       .  S
O304       Mg334   2.286   1_655  S
C305        O318   1.279       .  A
C305        O310   1.263       .  A
C305        C612   1.461       .  S
C306        O333   1.263       .  A
C306        C700   1.418       .  S
Mg307       O314   2.161       .  S
Mg307       O315   2.164       .  S
Mg307       O308   2.343   1_556  S
Mg307       O309   2.317       .  S
Mg307       O336   2.278   1_556  S
O309        C313   1.273       .  A
O310       Mg317   2.267   1_655  S
O311        C330   1.272       .  A
O312        C332   1.293       .  A
O312       Mg328   2.445       .  S
O314        C325   1.238       .  S
O314       Mg328   2.141       .  S
O315       Mg334   2.225       .  S
O316       Mg328   2.354       .  S
Mg317       O333   2.193       .  S
O318       Mg334   2.375   1_655  S
H319        C324   1.081       .  S
O320        C323   1.240       .  S
O320       Mg328   2.148       .  S
H321        C323   1.081       .  S
H322        C325   1.081       .  S
O327       Mg334   2.304       .  S
C330        O335   1.272       .  A
C330        C600   1.434       .  S
O331        C332   1.260       .  A
C332        C605   1.448       .  S
O337       Mg339   2.156       .  S
O337       Mg345   2.207       .  S
O337        C372   1.261       .  A
C338        O351   1.235       .  S
C338        O375   1.271       .  A
C338        H377   1.081       .  S
Mg339       O368   2.134       .  S
Mg339       O383   2.301       .  S
Mg339       O379   2.173       .  S
Mg339       O350   2.305       .  S
O340        C361   1.237       .  S
O340       Mg382   2.120       .  S
O340       Mg365   2.152       .  S
O341        C372   1.263       .  A
O341       Mg365   2.281       .  S
C342        O344   1.280       .  A
C342        O356   1.278       .  A
C342        C604   1.465       .  S
O343        C371   1.273       .  A
O343       Mg345   2.299       .  S
O344       Mg376   2.331       .  S
Mg345       O351   2.123       .  S
Mg345       O359   2.266       .  S
Mg345       O347   2.310       .  S
C346        O384   1.270       .  A
C346        O352   1.270       .  A
C346        C596   1.432       .  S
O347        C354   1.274       .  A
H348        C361   1.081   1_655  S
C349        O363   1.242       .  S
C349        O364   1.281       .  A
C349        H374   1.081       .  S
O350        C373   1.273       .  A
O351       Mg365   2.159       .  S
O352       Mg382   2.286   1_655  S
C353        O366   1.276       .  A
C353        O358   1.262       .  A
C353        C636   1.459       .  S
C354        O381   1.264       .  A
C354        C677   1.419       .  S
Mg355       O362   2.157       .  S
Mg355       O363   2.159       .  S
Mg355       O356   2.345       .  S
Mg355       O357   2.324       .  S
Mg355       O384   2.276   1_455  S
O357        C361   1.274       .  A
O358       Mg365   2.265   1_655  S
O359        C378   1.272       .  A
O360        C380   1.291       .  A
O360       Mg376   2.432       .  S
O362        C373   1.239       .  S
O362       Mg376   2.141       .  S
O363       Mg382   2.220       .  S
O364       Mg376   2.352       .  S
Mg365       O381   2.198       .  S
O366       Mg382   2.366   1_655  S
H367        C372   1.081       .  S
O368        C371   1.239       .  S
O368       Mg376   2.144       .  S
H369        C371   1.081       .  S
H370        C373   1.081       .  S
O375       Mg382   2.308       .  S
C378        O383   1.272       .  A
C378        C645   1.434       .  S
O379        C380   1.261       .  A
C380        C629   1.446       .  S
O385       Mg387   2.158       .  S
O385       Mg393   2.207       .  S
O385        C420   1.262       .  A
C386        O399   1.235       .  S
C386        O423   1.270       .  A
C386        H425   1.081       .  S
Mg387       O416   2.140       .  S
Mg387       O431   2.306       .  S
Mg387       O427   2.166       .  S
Mg387       O398   2.303       .  S
O388        C409   1.237       .  S
O388       Mg430   2.121       .  S
O388       Mg413   2.151       .  S
O389        C420   1.264       .  A
O389       Mg413   2.282   1_565  S
C390        O392   1.282       .  A
C390        O404   1.279       .  A
C390        C592   1.468       .  S
O391        C419   1.273       .  A
O391       Mg393   2.301       .  S
O392       Mg424   2.344       .  S
Mg393       O399   2.119       .  S
Mg393       O407   2.264       .  S
Mg393       O395   2.307       .  S
C394        O432   1.271       .  A
C394        O400   1.271       .  A
C394        C709   1.430       .  S
O395        C402   1.274       .  A
H396        C409   1.081       .  S
C397        O411   1.242       .  S
C397        O412   1.281       .  A
C397        H422   1.081       .  S
O398        C421   1.273       .  A
O399       Mg413   2.157   1_565  S
O400       Mg430   2.285       .  S
C401        O414   1.278       .  A
C401        O406   1.261       .  A
C401        C609   1.461       .  S
C402        O429   1.264   1_565  A
C402        C656   1.419       .  S
Mg403       O410   2.158       .  S
Mg403       O411   2.167       .  S
Mg403       O404   2.345       .  S
Mg403       O405   2.318   1_565  S
Mg403       O432   2.271   1_565  S
O405        C409   1.273       .  A
O406       Mg413   2.263       .  S
O407        C426   1.271       .  A
O408        C428   1.293       .  A
O408       Mg424   2.447       .  S
O410        C421   1.239       .  S
O410       Mg424   2.143       .  S
O411       Mg430   2.224   1_565  S
O412       Mg424   2.353       .  S
Mg413       O429   2.199       .  S
O414       Mg430   2.379       .  S
H415        C420   1.081       .  S
O416        C419   1.239       .  S
O416       Mg424   2.149       .  S
H417        C419   1.081       .  S
H418        C421   1.081       .  S
O423       Mg430   2.308   1_565  S
C426        O431   1.273       .  A
C426        C585   1.435       .  S
O427        C428   1.260       .  A
C428        C608   1.448       .  S
O433        C468   1.235       .  S
O433       Mg435   2.097       .  S
O433       Mg441   2.142       .  S
C434        O447   1.236       .  S
C434        O471   1.271       .  A
C434        H473   1.081       .  S
Mg435       O464   2.137       .  S
Mg435       O479   2.302       .  S
Mg435       O475   2.178       .  S
Mg435       O446   2.304       .  S
O436        C457   1.237       .  S
O436       Mg478   2.117       .  S
O436       Mg461   2.148       .  S
O437        C468   1.265       .  A
O437       Mg461   2.271   1_565  S
C438        O440   1.281       .  A
C438        O452   1.279       .  A
C438        C589   1.468       .  S
O439        C467   1.270       .  A
O439       Mg441   2.294       .  S
O440       Mg472   2.342       .  S
Mg441       O447   2.123       .  S
Mg441       O455   2.261       .  S
Mg441       O443   2.309       .  S
C442        O480   1.270       .  A
C442        O448   1.270       .  A
C442        C584   1.430       .  S
O443        C450   1.274       .  A
H444        C457   1.081       .  S
C445        O459   1.241       .  S
C445        O460   1.281       .  A
C445        H470   1.081       .  S
O446        C469   1.274       .  A
O447       Mg461   2.143   1_565  S
O448       Mg478   2.284       .  S
C449        O462   1.277       .  A
C449        O454   1.261       .  A
C449        C624   1.460       .  S
C450        O477   1.263   1_565  A
C450        C649   1.420       .  S
Mg451       O458   2.154       .  S
Mg451       O459   2.163       .  S
Mg451       O452   2.347       .  S
Mg451       O453   2.322   1_565  S
Mg451       O480   2.270   1_565  S
O453        C457   1.274       .  A
O454       Mg461   2.263       .  S
O455        C474   1.271       .  A
O456        C476   1.291       .  A
O456       Mg472   2.433       .  S
O458        C469   1.239       .  S
O458       Mg472   2.142       .  S
O459       Mg478   2.220   1_565  S
O460       Mg472   2.349       .  S
Mg461       O477   2.201       .  S
O462       Mg478   2.374       .  S
H463        C468   1.081       .  S
O464        C467   1.237       .  S
O464       Mg472   2.149       .  S
H465        C467   1.081       .  S
H466        C469   1.081       .  S
O471       Mg478   2.311   1_565  S
C474        O479   1.272       .  A
C474        C693   1.434       .  S
O475        C476   1.261       .  A
C476        C620   1.447       .  S
O481       Mg483   2.156       .  S
O481       Mg489   2.208       .  S
O481        C516   1.261       .  A
C482        O495   1.235       .  S
C482        O519   1.270       .  A
C482        H521   1.081       .  S
Mg483       O512   2.136       .  S
Mg483       O527   2.305       .  S
Mg483       O523   2.171       .  S
Mg483       O494   2.306       .  S
O484        C505   1.237       .  S
O484       Mg526   2.120       .  S
O484       Mg509   2.149       .  S
O485        C516   1.264       .  A
O485       Mg509   2.281       .  S
C486        O488   1.280       .  A
C486        O500   1.278       .  A
C486        C580   1.464       .  S
O487        C515   1.272       .  A
O487       Mg489   2.298       .  S
O488       Mg520   2.331   1_556  S
Mg489       O495   2.126       .  S
Mg489       O503   2.268       .  S
Mg489       O491   2.307       .  S
C490        O528   1.271       .  A
C490        O496   1.271   1_556  A
C490        C588   1.432       .  S
O491        C498   1.274       .  A
H492        C505   1.081       .  S
C493        O507   1.242   1_556  S
C493        O508   1.281       .  A
C493        H518   1.081       .  S
O494        C517   1.273       .  A
O495       Mg509   2.161       .  S
O496       Mg526   2.286       .  S
C497        O510   1.278       .  A
C497        O502   1.262       .  A
C497        C669   1.461       .  S
C498        O525   1.263       .  A
C498        C640   1.418       .  S
Mg499       O506   2.161       .  S
Mg499       O507   2.163       .  S
Mg499       O500   2.344   1_554  S
Mg499       O501   2.320       .  S
Mg499       O528   2.278   1_554  S
O501        C505   1.273       .  A
O502       Mg509   2.267       .  S
O503        C522   1.272       .  A
O504        C524   1.292       .  A
O504       Mg520   2.438       .  S
O506        C517   1.239       .  S
O506       Mg520   2.142       .  S
O507       Mg526   2.222       .  S
O508       Mg520   2.353   1_556  S
Mg509       O525   2.193       .  S
O510       Mg526   2.373       .  S
H511        C516   1.081       .  S
O512        C515   1.239       .  S
O512       Mg520   2.145       .  S
H513        C515   1.081       .  S
H514        C517   1.081       .  S
O519       Mg526   2.307       .  S
C522        O527   1.273       .  A
C522        C593   1.436       .  S
O523        C524   1.260       .  A
C524        C668   1.447       .  S
O529       Mg531   2.156       .  S
O529       Mg537   2.209       .  S
O529        C564   1.261       .  A
C530        O543   1.234       .  S
C530        O567   1.269       .  A
C530        H569   1.081       .  S
Mg531       O560   2.133       .  S
Mg531       O575   2.299       .  S
Mg531       O571   2.169       .  S
Mg531       O542   2.308       .  S
O532        C553   1.237       .  S
O532       Mg574   2.123       .  S
O532       Mg557   2.143       .  S
O533        C564   1.263       .  A
O533       Mg557   2.279       .  S
C534        O536   1.280       .  A
C534        O548   1.278       .  A
C534        C577   1.464       .  S
O535        C563   1.273       .  A
O535       Mg537   2.299       .  S
O536       Mg568   2.332       .  S
Mg537       O543   2.123       .  S
Mg537       O551   2.265       .  S
Mg537       O539   2.304       .  S
C538        O576   1.271       .  A
C538        O544   1.271       .  A
C538        C597   1.431       .  S
O539        C546   1.273       .  A
H540        C553   1.081       .  S
C541        O555   1.242       .  S
C541        O556   1.281       .  A
C541        H566   1.081       .  S
O542        C565   1.273       .  A
O543       Mg557   2.163       .  S
O544       Mg574   2.284       .  S
C545        O558   1.279       .  A
C545        O550   1.263       .  A
C545        C708   1.459       .  S
C546        O573   1.263       .  A
C546        C616   1.417       .  S
Mg547       O554   2.158       .  S
Mg547       O555   2.163       .  S
Mg547       O548   2.342       .  S
Mg547       O549   2.317       .  S
Mg547       O576   2.273       .  S
O549        C553   1.273       .  A
O550       Mg557   2.267       .  S
O551        C570   1.272       .  A
O552        C572   1.292       .  A
O552       Mg568   2.438       .  S
O554        C565   1.239       .  S
O554       Mg568   2.139       .  S
O555       Mg574   2.221       .  S
O556       Mg568   2.353       .  S
Mg557       O573   2.192       .  S
O558       Mg574   2.369       .  S
H559        C564   1.081       .  S
O560        C563   1.239       .  S
O560       Mg568   2.145       .  S
H561        C563   1.081       .  S
H562        C565   1.081       .  S
O567       Mg574   2.302       .  S
C570        O575   1.272       .  A
C570        C581   1.433       .  S
O571        C572   1.260       .  A
C572        C704   1.446       .  S
C577        C578   1.223       .  T
C578        C579   1.439       .  S
C579        C580   1.223       .  T
C581        C582   1.204       .  T
C582        C583   1.408       .  S
C583        C584   1.203       .  T
C585        C586   1.205       .  T
C586        C587   1.411       .  S
C587        C588   1.205       .  T
C589        C590   1.225       .  T
C590        C591   1.443       .  S
C591        C592   1.225       .  T
C593        C594   1.205       .  T
C594        C595   1.411       .  S
C595        C596   1.204       .  T
C597        C598   1.204       .  T
C598        C599   1.410       .  S
C599        C600   1.205       .  T
C601        C602   1.223       .  T
C602        C603   1.440       .  S
C603        C604   1.223       .  T
C605        C606   1.219       .  T
C606        C607   1.435       .  S
C607        C608   1.219       .  T
C609        C610   1.223       .  T
C610        C611   1.440       .  S
C611        C612   1.223       .  T
C613        C614   1.196       .  T
C614        C615   1.396       .  S
C615        C616   1.196       .  T
C617        C618   1.218       .  T
C618        C619   1.433       .  S
C619        C620   1.218       .  T
C621        C622   1.222       .  T
C622        C623   1.439       .  S
C623        C624   1.222       .  T
C625        C626   1.223       .  T
C626        C627   1.440       .  S
C627        C628   1.223       .  T
C629        C630   1.217       .  T
C630        C631   1.431       .  S
C631        C632   1.217       .  T
C633        C634   1.221       .  T
C634        C635   1.437       .  S
C635        C636   1.221       .  T
C637        C638   1.196       .  T
C638        C639   1.397       .  S
C639        C640   1.196       .  T
C641        C642   1.205       .  T
C642        C643   1.409       .  S
C643        C644   1.204       .  T
C645        C646   1.204       .  T
C646        C647   1.409       .  S
C647        C648   1.203       .  T
C649        C650   1.197   1_565  T
C650        C651   1.398       .  S
C651        C652   1.197       .  T
C653        C654   1.197       .  T
C654        C655   1.398   1_554  S
C655        C656   1.197   1_545  T
C657        C658   1.206       .  T
C658        C659   1.411       .  S
C659        C660   1.205       .  T
C661        C662   1.224       .  T
C662        C663   1.442       .  S
C663        C664   1.224       .  T
C665        C666   1.218       .  T
C666        C667   1.433       .  S
C667        C668   1.218       .  T
C669        C670   1.223       .  T
C670        C671   1.440       .  S
C671        C672   1.223       .  T
C673        C674   1.206       .  T
C674        C675   1.411       .  S
C675        C676   1.205       .  T
C677        C678   1.197       .  T
C678        C679   1.398       .  S
C679        C680   1.197   1_455  T
C681        C682   1.204       .  T
C682        C683   1.410       .  S
C683        C684   1.205       .  T
C685        C686   1.219       .  T
C686        C687   1.434       .  S
C687        C688   1.219       .  T
C689        C690   1.223       .  T
C690        C691   1.440       .  S
C691        C692   1.223       .  T
C693        C694   1.205       .  T
C694        C695   1.410       .  S
C695        C696   1.204       .  T
C697        C698   1.196   1_655  T
C698        C699   1.397       .  S
C699        C700   1.196       .  T
C701        C702   1.218       .  T
C702        C703   1.433       .  S
C703        C704   1.218       .  T
C705        C706   1.222       .  T
C706        C707   1.439       .  S
C707        C708   1.222       .  T
C709        C710   1.203       .  T
C710        C711   1.409       .  S
C711        C712   1.204       .  T
C713        C714   1.224       .  T
C714        C715   1.441       .  S
C715        C716   1.224       .  T
C717        C718   1.205       .  T
C718        C719   1.409       .  S
C719        C720   1.204       .  T
