geometry optimzed in LAMMPS
_audit_creation_date              2020-11-30 
_audit_creation_method            'lammps2cif' 
_symmetry_space_group_name_H-M    'P1' 
_symmetry_Int_Tables_number       1 
_symmetry_cell_setting            triclinic 
loop_ 
_symmetry_equiv_pos_as_xyz 
  x,y,z 
_cell_length_a                    43.36151199631407 
_cell_length_b                    43.51916309731082 
_cell_length_c                    35.25135292598495 
_cell_angle_alpha                 91.44159865552183 
_cell_angle_beta                  91.52017460755047 
_cell_angle_gamma                 89.71450541019557 
loop_ 
_atom_site_label 
_atom_site_type_symbol 
_atom_site_fract_x 
_atom_site_fract_y 
_atom_site_fract_z 
_atom_site_charge 
O1          O  0.03740989  0.74712675  0.17102344    -0.82320
O2          O  0.16867055  0.74607024  0.14340312    -0.67010
O3          O  0.09501054  0.72192177  0.18640899    -1.13610
C4          C  0.11573504  0.79317199  0.27889242     1.04570
O5          O  0.19297815  0.74114510  0.19997420    -0.80220
O6          O  0.15333244  0.71756837  0.25347830    -0.67800
Ni7        Ni  0.06039092  0.71085201  0.15633405     1.34870
C8          C  0.12680188  0.71108721  0.26574094     0.83300
O9          O  0.12784157  0.70058361  0.12613971    -0.80760
O10         O  0.08440585  0.67582823  0.14145732    -0.91030
C11         C  0.19329457  0.74337785  0.16354298     0.82880
O12         O  0.07188087  0.73088687  0.11099237    -0.69230
O13         O  0.14160084  0.77845143  0.27951056    -0.88520
C14         C  0.08352357  0.75753542  0.11000386     0.83710
C15         C  0.11152917  0.67613143  0.12772246     1.05270
H16         H  0.13452266  0.78446005  0.19221982     0.37080
O17         O  0.13359855  0.76406259  0.20235404    -1.11180
O18         O  0.10405871  0.72915084  0.26088881    -0.67830
Ni19       Ni  0.09405571  0.75610610  0.21953030     1.26350
O20         O  0.10794172  0.76355564  0.13020204    -0.68060
O21         O  0.09573828  0.79026158  0.25226571    -0.80350
C22         C  0.03796710  0.76049167  0.20362643     0.83090
O23         O  0.05305075  0.74908821  0.23069053    -0.67530
Ni24       Ni  0.16574867  0.75848715  0.23886185     1.27450
Ni25       Ni  0.13076600  0.73381801  0.16283175     1.26060
H26         H  0.10029049  0.70380468  0.20032958     0.37630
O27         O  0.95675230  0.83604961  0.14370951    -0.82320
O28         O  0.83721370  0.75187081  0.13301338    -0.67010
O29         O  0.90120867  0.80854771  0.15124658    -1.13610
C30         C  0.92020206  0.73710820  0.24712944     1.04570
O31         O  0.82015447  0.76832725  0.18862599    -0.80220
O32         O  0.86215954  0.79502743  0.24790922    -0.67800
Ni33       Ni  0.92557590  0.81904682  0.10953396     1.34870
C34         C  0.88633273  0.81195473  0.25040495     0.83300
O35         O  0.85112655  0.80414642  0.10014269    -0.80760
O36         O  0.89504930  0.80522376  0.07305019    -0.91030
C37         C  0.81489169  0.75948871  0.15362125     0.82880
O38         O  0.94213258  0.77817472  0.11047478    -0.69230
O39         O  0.89065287  0.73839900  0.25047039    -0.88520
C40         C  0.92626419  0.75395162  0.10262043     0.83710
C41         C  0.86802602  0.81561804  0.07604727     1.05270
H42         H  0.89003295  0.73762554  0.17211698     0.37080
O43         O  0.88444028  0.75824388  0.18023545    -1.11180
O44         O  0.90814244  0.80810019  0.22791648    -0.67830
Ni45       Ni  0.92008201  0.78151617  0.18732296     1.26350
O46         O  0.89646519  0.75358168  0.10608761    -0.68060
O47         O  0.93528698  0.75291389  0.22357088    -0.80350
C48         C  0.96661325  0.82788627  0.17627795     0.83090
O49         O  0.95627109  0.80472752  0.19304685    -0.67530
Ni50       Ni  0.85652746  0.75515006  0.22040525     1.27450
Ni51       Ni  0.86924599  0.77979619  0.13928365     1.26060
H52         H  0.89280287  0.82679758  0.16332949     0.37630
O53         O  0.03874361  0.72488029  0.46851163    -0.82320
O54         O  0.01520423  0.59285235  0.47862354    -0.67010
O55         O  0.05548501  0.66397463  0.45118595    -1.13610
C56         C  0.98835187  0.65998980  0.34785958     1.04570
O57         O  0.02680949  0.57153378  0.42263403    -0.80220
O58         O  0.05327970  0.61019576  0.36729207    -0.67800
Ni59       Ni  0.06735357  0.69442544  0.48774200     1.34870
C60         C  0.06527725  0.63635833  0.36123980     0.83300
O61         O  0.06347568  0.62309353  0.00881009    -0.80760
O62         O  0.09517777  0.66388066  0.00715576    -0.91030
C63         C  0.02145139  0.56931610  0.45845759     0.82880
O64         O  0.03790492  0.68598668  0.52639222    -0.69230
O65         O  0.99425202  0.63089231  0.34791600    -0.88520
C66         C  0.01121691  0.67396068  0.02265239     0.83710
C67         C  0.08935401  0.63612481  0.01613134     1.05270
H68         H  0.98854544  0.63672454  0.43070809     0.37080
O69         O  0.00977240  0.63419604  0.42348032    -1.11180
O70         O  0.05494037  0.66096742  0.37563742    -0.67830
Ni71       Ni  0.02623935  0.67265675  0.41292792     1.26350
O72         O  0.00579010  0.65274207  0.49755640    -0.68060
O73         O  0.99697409  0.67897019  0.37392750    -0.80350
C74         C  0.02946346  0.72713646  0.43411264     0.83090
O75         O  0.04247533  0.71185930  0.40853594    -0.67530
Ni76       Ni  0.01181961  0.60257504  0.38565683     1.27450
Ni77       Ni  0.03538392  0.62900910  0.46694001     1.26060
H78         H  0.07428936  0.65707319  0.43952226     0.37630
O79         O  0.92923223  0.80305125  0.46152918    -0.82320
O80         O  0.99968983  0.92952671  0.49226515    -0.67010
O81         O  0.95286878  0.86034618  0.46115018    -1.13610
C82         C  0.03367595  0.85068357  0.37866702     1.04570
O83         O  0.99057701  0.94605602  0.43367085    -0.80220
O84         O  0.96382157  0.90183631  0.37838278    -0.67800
Ni85       Ni  0.93831215  0.83457293  0.49905302     1.34870
C86         C  0.95313139  0.87486526  0.37059180     0.83300
O87         O  0.94514118  0.90922260  0.01323641    -0.80760
O88         O  0.94501148  0.86478315  0.03827960    -0.91030
C89         C  0.99701305  0.95145153  0.46933810     0.82880
O90         O  0.97992446  0.82174485  0.50611427    -0.69230
O91         O  0.02394619  0.87803554  0.37132783    -0.88520
C92         C  0.00150049  0.83876345  0.02035515     0.83710
C93         C  0.93228935  0.89047618  0.03389655     1.05270
H94         H  0.02471624  0.88137121  0.45389259     0.37080
O95         O  0.00419390  0.88339586  0.44280350    -1.11180
O96         O  0.96450974  0.85174611  0.38662699    -0.67830
Ni97       Ni  0.98704744  0.84481367  0.43278074     1.26350
O98         O  0.00105295  0.86856830  0.51645061    -0.68060
O99         O  0.02202884  0.83393835  0.40399394    -0.80350
C100        C  0.94578663  0.79257632  0.43490481     0.83090
O101        O  0.97051345  0.80533431  0.42496151    -0.67530
Ni102      Ni  0.00501762  0.91062757  0.40199796     1.27450
Ni103      Ni  0.97629314  0.89479317  0.47943741     1.26060
H104        H  0.93591590  0.86708522  0.44504129     0.37630
O105        O  0.55370293  0.70183169  0.05679137    -0.82320
O106        O  0.67300977  0.75546690  0.08808696    -0.67010
O107        O  0.59363207  0.74814853  0.04432247    -1.13610
C108        C  0.62986878  0.68541875  0.45360226     1.04570
O109        O  0.69845735  0.75135106  0.03296244    -0.80220
O110        O  0.64989556  0.76876797  0.48298209    -0.67800
Ni111      Ni  0.55915894  0.74414091  0.07361587     1.34870
C112        C  0.62183276  0.76947418  0.47114790     0.83300
O113        O  0.61814145  0.78456782  0.10179953    -0.80760
O114        O  0.56634547  0.78562579  0.09070799    -0.91030
C115        C  0.69777384  0.75587599  0.06941913     0.82880
O116        O  0.57712982  0.73029622  0.11959594    -0.69230
O117        O  0.64886470  0.70803130  0.45117745    -0.88520
C118        C  0.60152706  0.71477678  0.12366233     0.83710
C119        C  0.59159656  0.79793743  0.10331226     1.05270
H120        H  0.65180812  0.70275782  0.04465844     0.37080
O121        O  0.64437679  0.72089821  0.03198258    -1.11180
O122        O  0.60519661  0.74511830  0.97222896    -0.67830
Ni123      Ni  0.60441807  0.71454920  0.01302486     1.26350
O124        O  0.62515002  0.71942950  0.10379344    -0.68060
O125        O  0.61740658  0.68056993  0.48433761    -0.80350
C126        C  0.54744447  0.69501392  0.02203887     0.83090
O127        O  0.56389216  0.70584980  0.99673909    -0.67530
Ni128      Ni  0.67195201  0.73102254  0.99341726     1.27450
Ni129      Ni  0.63240613  0.75211090  0.06776654     1.26060
H130        H  0.58977109  0.76643954  0.03011309     0.37630
O131        O  0.46995508  0.75652113  0.09553909    -0.82320
O132        O  0.33473265  0.74459855  0.11353150    -0.67010
O133        O  0.41559160  0.73272350  0.08111309    -1.13610
C134        C  0.39559656  0.80268533  0.49088572     1.04570
O135        O  0.31380617  0.74738580  0.05465170    -0.80220
O136        O  0.36192099  0.72484864  0.00880897    -0.67800
Ni137      Ni  0.44874245  0.72335812  0.11473626     1.34870
C138        C  0.38999510  0.72076034  0.99972805     0.83300
O139        O  0.37784618  0.70353777  0.13285180    -0.80760
O140        O  0.42763652  0.68894951  0.13252847    -0.91030
C141        C  0.31148002  0.74482519  0.09084341     0.82880
O142        O  0.43594350  0.74860534  0.15610278    -0.69230
O143        O  0.37244672  0.78463228  0.48530842    -0.88520
C144        C  0.41389696  0.76756279  0.16018928     0.83710
C145        C  0.39950208  0.68435414  0.13984717     1.05270
H146        H  0.36787074  0.78988930  0.07734206     0.37080
O147        O  0.37264707  0.77071429  0.06431553    -1.11180
O148        O  0.41029540  0.74142680  0.00750187    -0.67830
Ni149      Ni  0.41416971  0.76993916  0.05154030     1.26350
O150        O  0.38941972  0.76729079  0.13898885    -0.68060
O151        O  0.40904873  0.80526406  0.02282254    -0.80350
C152        C  0.47281033  0.75421223  0.06009286     0.83090
O153        O  0.45662312  0.77154423  0.04022690    -0.67530
Ni154      Ni  0.34496857  0.76490707  0.02175001     1.27450
Ni155      Ni  0.37552878  0.73795317  0.09916470     1.26060
H156        H  0.41458470  0.71466003  0.06482408     0.37630
O157        O  0.49822650  0.55217871  0.32413598    -0.82320
O158        O  0.47106215  0.69419573  0.35522804    -0.67010
O159        O  0.47510896  0.61089379  0.32048050    -1.13610
C160        C  0.54045587  0.64954185  0.22837950     1.04570
O161        O  0.46997413  0.71061788  0.29861353    -0.80220
O162        O  0.45745613  0.66634019  0.25043077    -0.67800
Ni163      Ni  0.48333691  0.58331293  0.36132650     1.34870
C164        C  0.45502346  0.63835781  0.24042997     0.83300
O165        O  0.44011619  0.64437763  0.36906693    -0.80760
O166        O  0.46528720  0.61015662  0.40278152    -0.91030
C167        C  0.48030460  0.71328420  0.33218255     0.82880
O168        O  0.52399188  0.60072741  0.36934415    -0.69230
O169        O  0.51745088  0.66760870  0.22484139    -0.88520
C170        C  0.52824175  0.62911664  0.37768105     0.83710
C171        C  0.44435562  0.63120434  0.39987843     1.05270
H172        H  0.52377802  0.66448918  0.31413776     0.37080
O173        O  0.50443095  0.65924183  0.30166899    -1.11180
O174        O  0.47699389  0.61922736  0.24510523    -0.67830
Ni175      Ni  0.50808373  0.61796914  0.28574615     1.26350
O176        O  0.50575111  0.64832477  0.37585669    -0.68060
O177        O  0.54117982  0.62791891  0.25227431    -0.80350
C178        C  0.50671629  0.55198530  0.28932206     0.83090
O179        O  0.51182065  0.57630357  0.27155753    -0.67530
Ni180      Ni  0.49372726  0.68821171  0.26326718     1.27450
Ni181      Ni  0.47268804  0.65240060  0.33726918     1.26060
H182        H  0.45616016  0.60491202  0.30733757     0.37630
O183        O  0.56084184  0.78503273  0.29733692    -0.82320
O184        O  0.51658754  0.92106047  0.27801960    -0.67010
O185        O  0.55635123  0.84651237  0.29543363    -1.13610
C186        C  0.48695116  0.85467364  0.39828001     1.04570
O187        O  0.53709567  0.93643050  0.33409844    -0.80220
O188        O  0.54484592  0.89478878  0.40288917    -0.67800
Ni189      Ni  0.55355632  0.81463143  0.25917470     1.34870
C190        C  0.56430403  0.87332702  0.39663388     0.83300
O191        O  0.55886207  0.88859223  0.23917330    -0.80760
O192        O  0.54828981  0.84149353  0.21724849    -0.91030
C193        C  0.52887109  0.94186861  0.29919010     0.82880
O194        O  0.51009796  0.81336706  0.26553536    -0.69230
O195        O  0.48558674  0.88357606  0.39245498    -0.88520
C196        C  0.49208027  0.83469718  0.25435852     0.83710
C197        C  0.55968691  0.86798606  0.21319209     1.05270
H198        H  0.49150853  0.87153159  0.32065900     0.37080
O199        O  0.51269167  0.87654662  0.32723868    -1.11180
O200        O  0.56635208  0.86390163  0.36342656    -0.67830
Ni201      Ni  0.53379506  0.84116307  0.34055098     1.26350
O202        O  0.50094303  0.86289898  0.25405219    -0.68060
O203        O  0.50832759  0.83701130  0.38505573    -0.80350
C204        C  0.56301323  0.78417583  0.33352275     0.83090
O205        O  0.55654032  0.80671408  0.35489109    -0.67530
Ni206      Ni  0.51272491  0.90884737  0.36515673     1.27450
Ni207      Ni  0.53518487  0.88291580  0.28349025     1.26060
H208        H  0.57794343  0.85088602  0.30034348     0.37630
O209        O  0.72154305  0.23561256  0.46213092    -0.82320
O210        O  0.58009208  0.20589880  0.48625140    -0.67010
O211        O  0.66326447  0.21217545  0.45627113    -1.13610
C212        C  0.62186340  0.27680375  0.36195590     1.04570
O213        O  0.56291316  0.20505483  0.42891455    -0.80220
O214        O  0.60670229  0.19395555  0.38206258    -0.67800
Ni215      Ni  0.69080403  0.22166794  0.49847332     1.34870
C216        C  0.63487999  0.19154995  0.37412721     0.83300
O217        O  0.63203762  0.17696846  0.50426126    -0.80760
O218        O  0.66406982  0.20513988  0.03915379    -0.91030
C219        C  0.56034864  0.21495173  0.46249590     0.82880
O220        O  0.67221647  0.26203906  0.50404411    -0.69230
O221        O  0.60342405  0.25423011  0.35768572    -0.88520
C222        C  0.64371507  0.26566105  0.51153310     0.83710
C223        C  0.64308237  0.18428243  0.03631566     1.05270
H224        H  0.60826411  0.25936036  0.44666537     0.37080
O225        O  0.61370611  0.24009966  0.43453677    -1.11180
O226        O  0.65397603  0.21329010  0.38043758    -0.67830
Ni227      Ni  0.65489325  0.24451069  0.42071683     1.26350
O228        O  0.62500165  0.24284948  0.50868539    -0.68060
O229        O  0.64398564  0.27716849  0.38658556    -0.80350
C230        C  0.72112206  0.24360052  0.42708921     0.83090
O231        O  0.69641821  0.24876848  0.40835269    -0.67530
Ni232      Ni  0.58416412  0.22956565  0.39487545     1.27450
Ni233      Ni  0.62195926  0.20879465  0.47090053     1.26060
H234        H  0.66986274  0.19336761  0.44373128     0.37630
O235        O  0.48735849  0.30216791  0.42639298    -0.82320
O236        O  0.34829711  0.26694363  0.39553753    -0.67010
O237        O  0.42517540  0.30178601  0.42053711    -1.13610
C238        C  0.41534446  0.22840951  0.01856754     1.04570
O239        O  0.33375096  0.28324499  0.45313442    -0.80220
O240        O  0.37659315  0.28787444  0.52405301    -0.67800
Ni241      Ni  0.45723696  0.29933577  0.38625773     1.34870
C242        C  0.39867087  0.30676991  0.52021561     0.83300
O243        O  0.38299796  0.30874334  0.36156931    -0.80760
O244        O  0.43040508  0.29812246  0.34238785    -0.91030
C245        C  0.32729526  0.27588701  0.41787030     0.82880
O246        O  0.45652150  0.25578787  0.38887770    -0.69230
O247        O  0.38632589  0.22841318  0.01110700    -0.88520
C248        C  0.43430923  0.23932773  0.37582056     0.83710
C249        C  0.40368654  0.30945858  0.33683537     1.05270
H250        H  0.39765030  0.23735515  0.43970412     0.37080
O251        O  0.39336331  0.25832955  0.44756858    -1.11180
O252        O  0.40858094  0.30949006  0.48795129    -0.67830
Ni253      Ni  0.42986247  0.27691268  0.46426911     1.26350
O254        O  0.40636101  0.24948756  0.37445921    -0.68060
O255        O  0.43355355  0.24941066  0.50721859    -0.80350
C256        C  0.48851927  0.30217061  0.46259332     0.83090
O257        O  0.46543006  0.29704289  0.48216177    -0.67530
Ni258      Ni  0.36145940  0.25740349  0.48408286     1.27450
Ni259      Ni  0.38762264  0.28321620  0.40491116     1.26060
H260        H  0.42167455  0.32325971  0.42672922     0.37630
O261        O  0.51111802  0.21268829  0.22277935    -0.82320
O262        O  0.52236869  0.08010507  0.24452154    -0.67010
O263        O  0.53526112  0.15870255  0.20940150    -1.13610
C264        C  0.46566846  0.13648515  0.11523201     1.04570
O265        O  0.52601277  0.05860168  0.18632677    -0.80220
O266        O  0.54563746  0.10657510  0.13922740    -0.67800
Ni267      Ni  0.54497784  0.19169187  0.24331920     1.34870
C268        C  0.54719333  0.13420852  0.12802354     0.83300
O269        O  0.56323831  0.12227114  0.26565244    -0.80760
O270        O  0.58023055  0.17058319  0.26194295    -0.91030
C271        C  0.52640046  0.05688963  0.22295900     0.82880
O272        O  0.52089688  0.17926763  0.28444006    -0.69230
O273        O  0.48437494  0.11342930  0.11186412    -0.88520
C274        C  0.50008410  0.15904375  0.28615234     0.83710
C275        C  0.58385480  0.14276206  0.27124684     1.05270
H276        H  0.47840567  0.11055486  0.20209153     0.37080
O277        O  0.49779998  0.11572931  0.19100651    -1.11180
O278        O  0.52527435  0.15318485  0.13478813    -0.67830
Ni279      Ni  0.49771803  0.15689993  0.17775830     1.26350
O280        O  0.49917484  0.13502930  0.26450703    -0.68060
O281        O  0.46256865  0.15084933  0.14648271    -0.80350
C282        C  0.51300321  0.21542864  0.18737713     0.83090
O283        O  0.49535436  0.19936101  0.16668318    -0.67530
Ni284      Ni  0.50626882  0.08771694  0.15041209     1.27450
Ni285      Ni  0.52958511  0.11961887  0.22877732     1.26060
H286        H  0.55327457  0.15709966  0.19405587     0.37630
O287        O  0.56980572  0.29294866  0.18824938    -0.82320
O288        O  0.51884234  0.41406140  0.21635603    -0.67010
O289        O  0.52471268  0.33495878  0.17340115    -1.13610
C290        C  0.58765145  0.36863009  0.08596146     1.04570
O291        O  0.52386157  0.43988539  0.16192334    -0.80220
O292        O  0.50456197  0.39132749  0.11134491    -0.67800
Ni293      Ni  0.52751045  0.30028944  0.20274491     1.34870
C294        C  0.50345163  0.36332729  0.09959234     0.83300
O295        O  0.48868532  0.36058127  0.22850882    -0.80760
O296        O  0.48602596  0.30907289  0.21762550    -0.91030
C297        C  0.51900350  0.43893642  0.19806924     0.82880
O298        O  0.54211047  0.31769044  0.24940752    -0.69230
O299        O  0.56525274  0.38818460  0.08216534    -0.88520
C300        C  0.55809158  0.34158734  0.25459721     0.83710
C301        C  0.47451156  0.33471124  0.22957180     1.05270
H302        H  0.57127832  0.39190473  0.17650833     0.37080
O303        O  0.55297265  0.38489235  0.16270575    -1.11180
O304        O  0.52786363  0.34647610  0.10174170    -0.67830
Ni305      Ni  0.55869216  0.34506626  0.14427438     1.26350
O306        O  0.55399656  0.36535904  0.23454975    -0.68060
O307        O  0.59297339  0.35718922  0.11752213    -0.80350
C308        C  0.57649161  0.28735701  0.15368331     0.83090
O309        O  0.56660779  0.30493445  0.12832568    -0.67530
Ni310      Ni  0.54310057  0.41239562  0.12325377     1.27450
Ni311      Ni  0.52145293  0.37367232  0.19642805     1.26060
H312        H  0.50625261  0.33166176  0.15810905     0.37630
O313        O  0.06206743  0.34743361  0.36301014    -0.82320
O314        O  0.18321225  0.26377976  0.37095226    -0.67010
O315        O  0.11751444  0.31871190  0.35332124    -1.13610
C316        C  0.09725337  0.24650171  0.25676438     1.04570
O317        O  0.19812421  0.27781171  0.31432669    -0.80220
O318        O  0.15538643  0.30745929  0.26272476    -0.67800
Ni319      Ni  0.09490466  0.33322192  0.39569091     1.34870
C320        C  0.12990012  0.32231907  0.25968413     0.83300
O321        O  0.17042045  0.31824439  0.40155767    -0.80760
O322        O  0.12758407  0.32266010  0.42940815    -0.91030
C323        C  0.20460900  0.27026493  0.34893740     0.82880
O324        O  0.07871397  0.29238436  0.39922534    -0.69230
O325        O  0.12632649  0.25048401  0.25162228    -0.88520
C326        C  0.09474552  0.26813680  0.40598184     0.83710
C327        C  0.15340071  0.33398899  0.42238318     1.05270
H328        H  0.13042340  0.24663347  0.33278981     0.37080
O329        O  0.13456930  0.26726544  0.32481426    -1.11180
O330        O  0.10684763  0.31454565  0.27801100    -0.67830
Ni331      Ni  0.09784215  0.28946238  0.31954564     1.26350
O332        O  0.12436989  0.26706795  0.40033985    -0.68060
O333        O  0.08238049  0.25925779  0.28403118    -0.80350
C334        C  0.05111801  0.33657238  0.33172900     0.83090
O335        O  0.06082929  0.31179811  0.31610765    -0.67530
Ni336      Ni  0.16111468  0.26576576  0.28287423     1.27450
Ni337      Ni  0.15053391  0.29109746  0.36486325     1.26060
H338        H  0.12527428  0.33552559  0.33915854     0.37630
O339        O  0.98959113  0.25075345  0.33287644    -0.82320
O340        O  0.85831060  0.24586531  0.35849223    -0.67010
O341        O  0.93277660  0.22414821  0.31493782    -1.13610
C342        C  0.91405223  0.29554773  0.22786594     1.04570
O343        O  0.83263293  0.24719381  0.30229443    -0.80220
O344        O  0.87471564  0.22035131  0.24923008    -0.67800
Ni345      Ni  0.96765726  0.21402345  0.34477275     1.34870
C346        C  0.90167204  0.21384760  0.23733416     0.83300
O347        O  0.89931680  0.19995897  0.37114784    -0.80760
O348        O  0.94508130  0.17829083  0.35642957    -0.91030
C349        C  0.83325827  0.24663036  0.33910991     0.82880
O350        O  0.95535047  0.23361240  0.39145816    -0.69230
O351        O  0.88814308  0.28092025  0.22502143    -0.88520
C352        C  0.94073506  0.25881607  0.39502756     0.83710
C353        C  0.91734915  0.17655795  0.36787646     1.05270
H354        H  0.89214074  0.28645614  0.31491902     0.37080
O355        O  0.89341423  0.26645137  0.30250707    -1.11180
O356        O  0.92335970  0.23314187  0.24160101    -0.67830
Ni357      Ni  0.93326143  0.25898415  0.28542358     1.26350
O358        O  0.91685390  0.26383556  0.37405457    -0.68060
O359        O  0.93159925  0.29417530  0.25682153    -0.80350
C360        C  0.98862277  0.26379914  0.30093265     0.83090
O361        O  0.97413375  0.25164815  0.27339529    -0.67530
Ni362      Ni  0.86205098  0.26217750  0.26435142     1.27450
Ni363      Ni  0.89619597  0.23458621  0.33819648     1.26060
H364        H  0.92846078  0.20597415  0.29962075     0.37630
O365        O  0.96275266  0.22654605  0.04005959    -0.82320
O366        O  0.01430378  0.09640146  0.01797965    -0.67010
O367        O  0.96273852  0.16327224  0.04128690    -1.13610
C368        C  0.03016855  0.16862053  0.14911597     1.04570
O369        O  0.00110588  0.07851957  0.07389391    -0.80220
O370        O  0.98365103  0.11500476  0.14108303    -0.67800
Ni371      Ni  0.94849915  0.19298771  0.00799190     1.34870
C372        C  0.96000535  0.13254762  0.13857455     0.83300
O373        O  0.96422674  0.11958951  0.48332195    -0.80760
O374        O  0.93215201  0.16018143  0.47678602    -0.91030
C375        C  0.00776750  0.07390796  0.03867446     0.82880
O376        O  0.98545001  0.19580791  0.97902535    -0.69230
O377        O  0.03918057  0.14136248  0.14007079    -0.88520
C378        C  0.01175065  0.18255137  0.47910288     0.83710
C379        C  0.93958168  0.13202146  0.47037764     1.05270
H380        H  0.03093844  0.15099868  0.06567767     0.37080
O381        O  0.01138887  0.14211539  0.07191628    -1.11180
O382        O  0.95556736  0.14891180  0.11029378    -0.67830
Ni383      Ni  0.98450423  0.17387513  0.08644026     1.26350
O384        O  0.01686953  0.15757377  0.99722137    -0.68060
O385        O  0.00721557  0.18209448  0.13304674    -0.80350
C386        C  0.96193969  0.22977545  0.07617358     0.83090
O387        O  0.95770168  0.20707281  0.09693621    -0.67530
Ni388      Ni  0.01918554  0.11073468  0.10753925     1.27450
Ni389      Ni  0.98925222  0.13127846  0.02667854     1.26060
H390        H  0.94384029  0.15315174  0.04754955     0.37630
O391        O  0.06502531  0.29916749  0.03530400    -0.82320
O392        O  0.02110750  0.43039383  0.01769808    -0.67010
O393        O  0.07081577  0.36318864  0.04284167    -1.13610
C394        C  0.99910238  0.36149218  0.14113585     1.04570
O395        O  0.03597925  0.45083829  0.07390157    -0.80220
O396        O  0.05396999  0.41368701  0.14201942    -0.67800
Ni397      Ni  0.08368810  0.33212751  0.00852800     1.34870
C398        C  0.07501319  0.39278516  0.14234948     0.83300
O399        O  0.07023090  0.40520371  0.98463249    -0.80760
O400        O  0.10231029  0.36427456  0.48167086    -0.91030
C401        C  0.02803780  0.45381476  0.03834246     0.82880
O402        O  0.04802143  0.33199168  0.97545893    -0.69230
O403        O  0.99581148  0.39055312  0.13666948    -0.88520
C404        C  0.02131418  0.34395495  0.47831491     0.83710
C405        C  0.09529638  0.39229085  0.47487814     1.05270
H406        H  0.00283224  0.38025593  0.06300217     0.37080
O407        O  0.02315826  0.38741257  0.07075361    -1.11180
O408        O  0.07692248  0.37340213  0.11568456    -0.67830
Ni409      Ni  0.04687901  0.35343651  0.08454488     1.26350
O410        O  0.01673970  0.36922228  0.99695755    -0.68060
O411        O  0.02105103  0.34546518  0.12668586    -0.80350
C412        C  0.06024882  0.29825322  0.07071669     0.83090
O413        O  0.07107965  0.31852984  0.09290169    -0.67530
Ni414      Ni  0.01782291  0.41969935  0.10693471     1.27450
Ni415      Ni  0.04549884  0.39579007  0.02712492     1.26060
H416        H  0.08981458  0.37256227  0.05206563     0.37630
C417        C  0.00080175  0.25228158  0.11847260    -0.14780
C418        C  0.97580039  0.25735656  0.09317640     0.07370
C419        C  0.97632774  0.28297450  0.07018038    -0.14780
C420        C  0.00438289  0.29668248  0.06392673    -0.14780
C421        C  0.03136245  0.28526387  0.08139526     0.07370
C422        C  0.02934894  0.26518360  0.11140481    -0.14780
H423        H  0.99926074  0.23557478  0.14028446     0.11360
H424        H  0.95667970  0.28859146  0.05198327     0.11360
H425        H  0.00534700  0.31504690  0.04394373     0.11360
H426        H  0.04962172  0.25872348  0.12803597     0.11360
C427        C  0.93872731  0.16999352  0.22932689    -0.14780
C428        C  0.91015755  0.18366183  0.21904249     0.07370
C429        C  0.89442911  0.17201244  0.18656328    -0.14780
C430        C  0.90882546  0.15017247  0.16256030    -0.14780
C431        C  0.93912999  0.13941262  0.17065948     0.07370
C432        C  0.95273819  0.14779939  0.20584810    -0.14780
H433        H  0.95187084  0.17851147  0.25383615     0.11360
H434        H  0.87267598  0.18214797  0.17753805     0.11360
H435        H  0.89781915  0.14455504  0.13533816     0.11360
H436        H  0.97618517  0.14074148  0.21271512     0.11360
C437        C  0.92844381  0.12184435  0.37893795    -0.14780
C438        C  0.90751607  0.14667271  0.38143213     0.07370
C439        C  0.88438871  0.14561778  0.40848540    -0.14780
C440        C  0.88943468  0.12682032  0.43956436    -0.14780
C441        C  0.91922545  0.11421158  0.44412639     0.07370
C442        C  0.93378403  0.10440013  0.41107339    -0.14780
H443        H  0.94481445  0.12019722  0.35628429     0.11360
H444        H  0.86636550  0.16292023  0.40969830     0.11360
H445        H  0.87536488  0.13080150  0.46417317     0.11360
H446        H  0.95469017  0.09071075  0.41275195     0.11360
C447        C  0.94692969  0.35864060  0.17163087    -0.14780
C448        C  0.97521871  0.34479466  0.16185172     0.07370
C449        C  0.97948086  0.31351457  0.16874045    -0.14780
C450        C  0.95628696  0.29628636  0.18434859    -0.14780
C451        C  0.92873699  0.31023694  0.19603066     0.07370
C452        C  0.92411229  0.34160471  0.18934901    -0.14780
H453        H  0.94275456  0.38274722  0.16650855     0.11360
H454        H  0.00129774  0.30250790  0.16319576     0.11360
H455        H  0.96124134  0.27255880  0.19109073     0.11360
H456        H  0.90381417  0.35326837  0.19983954     0.11360
C457        C  0.97682831  0.27237179  0.44901142    -0.14780
C458        C  0.95407252  0.28237423  0.42308521     0.07370
C459        C  0.94972024  0.31455602  0.42024876    -0.14780
C460        C  0.97023573  0.33558783  0.43946239    -0.14780
C461        C  0.99529219  0.32466672  0.46178437     0.07370
C462        C  0.99729849  0.29282039  0.46717836    -0.14780
H463        H  0.98029559  0.24820116  0.45340537     0.11360
H464        H  0.93227548  0.32336713  0.40079987     0.11360
H465        H  0.96770162  0.35998217  0.43489655     0.11360
H466        H  0.01573217  0.28332243  0.48466168     0.11360
C467        C  0.09953124  0.36959180  0.24113638    -0.14780
C468        C  0.12407957  0.34883416  0.23342537     0.07370
C469        C  0.13714310  0.35006531  0.19751628    -0.14780
C470        C  0.12378575  0.36872917  0.16914009    -0.14780
C471        C  0.09671874  0.38651371  0.17550064     0.07370
C472        C  0.08600683  0.38798616  0.21270701    -0.14780
H473        H  0.08888728  0.36966115  0.26858879     0.11360
H474        H  0.15574746  0.33452374  0.19015735     0.11360
H475        H  0.13276040  0.36667619  0.14079775     0.11360
H476        H  0.06510493  0.40065973  0.21890812     0.11360
C477        C  0.16620190  0.38113703  0.45934394    -0.14780
C478        C  0.15719190  0.36751160  0.42438641     0.07370
C479        C  0.13734445  0.38449986  0.40040802    -0.14780
C480        C  0.11777876  0.40640469  0.41670810    -0.14780
C481        C  0.11903911  0.40996043  0.45616552     0.07370
C482        C  0.14822168  0.40538728  0.47376175    -0.14780
H483        H  0.18267158  0.36981994  0.47799890     0.11360
H484        H  0.13239201  0.37704473  0.37160944     0.11360
H485        H  0.09751179  0.41370374  0.40064880     0.11360
H486        H  0.15168993  0.41188868  0.50343105     0.11360
C487        C  0.04758405  0.23442798  0.40624079    -0.14780
C488        C  0.07721982  0.24116257  0.42143659     0.07370
C489        C  0.08703996  0.22467874  0.45373506    -0.14780
C490        C  0.06694472  0.20375669  0.47140601    -0.14780
C491        C  0.03660769  0.19840321  0.45697020     0.07370
C492        C  0.02807277  0.21324481  0.42318839    -0.14780
H493        H  0.03902644  0.24638873  0.38151327     0.11360
H494        H  0.10948285  0.22936078  0.46672085     0.11360
H495        H  0.07451147  0.19320722  0.49755389     0.11360
H496        H  0.00542923  0.20933824  0.41057908     0.11360
C497        C  0.09587072  0.20459431  0.20655156    -0.14780
C498        C  0.08009311  0.22578237  0.22990534     0.07370
C499        C  0.04769609  0.22638242  0.22812182    -0.14780
C500        C  0.03145740  0.20690890  0.20278531    -0.14780
C501        C  0.04725647  0.18623346  0.17895400     0.07370
C502        C  0.07955988  0.18481205  0.18149169    -0.14780
H503        H  0.12082524  0.20330762  0.20761255     0.11360
H504        H  0.03489476  0.24229214  0.24584151     0.11360
H505        H  0.00649235  0.20824338  0.20148492     0.11360
H506        H  0.09220942  0.16920761  0.16314251     0.11360
C507        C  0.99830869  0.34383748  0.33776784    -0.14780
C508        C  0.02295391  0.35017119  0.31461897     0.07370
C509        C  0.01848582  0.34088123  0.27616253    -0.14780
C510        C  0.00595879  0.31147822  0.26952350    -0.14780
C511        C  0.99326980  0.29680068  0.30051290     0.07370
C512        C  0.98536372  0.31473202  0.33253009    -0.14780
H513        H  0.99627744  0.35547195  0.36511055     0.11360
H514        H  0.03270719  0.35038387  0.25461683     0.11360
H515        H  0.00951095  0.29931317  0.24282247     0.11360
H516        H  0.97199788  0.30510158  0.35442924     0.11360
C517        C  0.57030302  0.22601930  0.19095237    -0.14780
C518        C  0.54191018  0.22413609  0.17024120     0.07370
C519        C  0.54167725  0.23044704  0.13122454    -0.14780
C520        C  0.56759888  0.24394380  0.11613344    -0.14780
C521        C  0.58859235  0.25701816  0.14249178     0.07370
C522        C  0.59560100  0.23919556  0.17398795    -0.14780
H523        H  0.57277083  0.22093683  0.22049610     0.11360
H524        H  0.52117186  0.22711837  0.11337689     0.11360
H525        H  0.56574908  0.25259957  0.08760090     0.11360
H526        H  0.61586910  0.24442617  0.19155007     0.11360
C527        C  0.26966767  0.27481137  0.42337568    -0.14780
C528        C  0.29562892  0.27772976  0.40110517     0.07370
C529        C  0.29144372  0.27929421  0.36128527    -0.14780
C530        C  0.26204721  0.27710807  0.34404205    -0.14780
C531        C  0.23616731  0.27295399  0.36619093     0.07370
C532        C  0.24031609  0.27227594  0.40612153    -0.14780
H533        H  0.27213470  0.27336502  0.45393318     0.11360
H534        H  0.31108367  0.28173390  0.34325716     0.11360
H535        H  0.25965623  0.27813757  0.31344264     0.11360
H536        H  0.22079310  0.26961565  0.42426498     0.11360
C537        C  0.45060658  0.36765790  0.06591984    -0.14780
C538        C  0.47334430  0.34960515  0.08416977     0.07370
C539        C  0.46677959  0.31806433  0.08787885    -0.14780
C540        C  0.43933777  0.30484047  0.07226329    -0.14780
C541        C  0.41767636  0.32240845  0.05141966     0.07370
C542        C  0.42368154  0.35420404  0.04919194    -0.14780
H543        H  0.45447828  0.39198703  0.06257990     0.11360
H544        H  0.48333869  0.30327470  0.10206759     0.11360
H545        H  0.43645443  0.28021095  0.07367752     0.11360
H546        H  0.40846336  0.36840028  0.03211939     0.11360
C547        C  0.41132604  0.35274249  0.29761338    -0.14780
C548        C  0.39871767  0.32323319  0.29993762     0.07370
C549        C  0.40224842  0.30261051  0.26913226    -0.14780
C550        C  0.42564073  0.30744274  0.24351754    -0.14780
C551        C  0.44399936  0.33393998  0.24724085     0.07370
C552        C  0.43462508  0.35789622  0.27187139    -0.14780
H553        H  0.40817253  0.36945132  0.32051582     0.11360
H554        H  0.39196435  0.27998305  0.26968616     0.11360
H555        H  0.43134367  0.28911909  0.22351708     0.11360
H556        H  0.44752727  0.37912760  0.27438987     0.11360
C557        C  0.45944363  0.19386808  0.03869829    -0.14780
C558        C  0.42812083  0.20223432  0.04051705     0.07370
C559        C  0.40847825  0.18403280  0.06174647    -0.14780
C560        C  0.42020843  0.15951015  0.08272935    -0.14780
C561        C  0.45169815  0.15198137  0.08225104     0.07370
C562        C  0.47104090  0.16884275  0.05914062    -0.14780
H563        H  0.47508295  0.20698697  0.02202949     0.11360
H564        H  0.38416755  0.18954897  0.06347539     0.11360
H565        H  0.40504971  0.14767757  0.10140154     0.11360
H566        H  0.49562036  0.16428336  0.05937710     0.11360
C567        C  0.43125064  0.19998139  0.32255050    -0.14780
C568        C  0.44287136  0.20907449  0.35868636     0.07370
C569        C  0.46866233  0.19341339  0.37382513    -0.14780
C570        C  0.48495431  0.17223914  0.35149052    -0.14780
C571        C  0.47577548  0.16618573  0.31359199     0.07370
C572        C  0.44768116  0.17867308  0.30008960    -0.14780
H573        H  0.41171464  0.21195701  0.30996514     0.11360
H574        H  0.47816297  0.19996692  0.40158641     0.11360
H575        H  0.50682373  0.16348996  0.36231539     0.11360
H576        H  0.44057050  0.17508362  0.27062353     0.11360
C577        C  0.77933408  0.24272900  0.42282087    -0.14780
C578        C  0.75015677  0.24587682  0.40534188     0.07370
C579        C  0.74850947  0.24931908  0.36545756    -0.14780
C580        C  0.77515995  0.24938634  0.34375536    -0.14780
C581        C  0.80432640  0.24617405  0.36124777     0.07370
C582        C  0.80599833  0.24300300  0.40114472    -0.14780
H583        H  0.78158528  0.23982992  0.45318627     0.11360
H584        H  0.72643619  0.25149065  0.35064853     0.11360
H585        H  0.77289111  0.25195214  0.31333048     0.11360
H586        H  0.82806535  0.24048627  0.41586314     0.11360
C587        C  0.59481747  0.18780712  0.07003537    -0.14780
C588        C  0.62401765  0.17411201  0.06831652     0.07370
C589        C  0.62819034  0.14559402  0.08617266    -0.14780
C590        C  0.60377897  0.13211935  0.10621348    -0.14780
C591        C  0.57423885  0.14603715  0.10672861     0.07370
C592        C  0.57029165  0.17346710  0.08714594    -0.14780
H593        H  0.59020892  0.20886007  0.05527636     0.11360
H594        H  0.64982002  0.13329672  0.08353622     0.11360
H595        H  0.60777475  0.11062590  0.12037903     0.11360
H596        H  0.54768620  0.18377100  0.08419683     0.11360
C597        C  0.62596855  0.13726366  0.35913551    -0.14780
C598        C  0.64354521  0.16367939  0.35267658     0.07370
C599        C  0.65414032  0.16811164  0.31611075    -0.14780
C600        C  0.63829168  0.15388671  0.28559210    -0.14780
C601        C  0.61233470  0.13580835  0.29267689     0.07370
C602        C  0.60947450  0.12357671  0.32872402    -0.14780
H603        H  0.61893446  0.13236671  0.38762366     0.11360
H604        H  0.66899165  0.18733967  0.31052928     0.11360
H605        H  0.64181718  0.16234570  0.25738700     0.11360
H606        H  0.59040599  0.10858853  0.33465679     0.11360
C607        C  0.64945784  0.31980888  0.04174599    -0.14780
C608        C  0.63116158  0.29656413  0.02429412     0.07370
C609        C  0.59942421  0.30247740  0.02015330    -0.14780
C610        C  0.58579727  0.32973052  0.03403654    -0.14780
C611        C  0.60333511  0.35175220  0.05448341     0.07370
C612        C  0.63563189  0.34672073  0.05728530    -0.14780
H613        H  0.67404380  0.31627019  0.04580130     0.11360
H614        H  0.58489676  0.28496046  0.50778757     0.11360
H615        H  0.56091448  0.33179666  0.03297270     0.11360
H616        H  0.64985096  0.36238535  0.07440836     0.11360
C617        C  0.62487630  0.30357150  0.30038757    -0.14780
C618        C  0.61530707  0.30355715  0.33803599     0.07370
C619        C  0.59166248  0.32387369  0.34905401    -0.14780
C620        C  0.57553254  0.34132258  0.32203731    -0.14780
C621        C  0.58303940  0.33899246  0.28360935     0.07370
C622        C  0.60909673  0.32146121  0.27349920    -0.14780
H623        H  0.64236048  0.28745234  0.29097176     0.11360
H624        H  0.58331975  0.32357613  0.37774463     0.11360
H625        H  0.55491618  0.35361608  0.33040242     0.11360
H626        H  0.61467499  0.31835482  0.24386241     0.11360
C627        C  0.53345627  0.25174730  0.50545566    -0.14780
C628        C  0.54668381  0.24508212  0.47021459     0.07370
C629        C  0.55110426  0.26923037  0.44503056    -0.14780
C630        C  0.54218778  0.29888415  0.45514878    -0.14780
C631        C  0.51891285  0.30129846  0.48155874     0.07370
C632        C  0.52047045  0.28082793  0.51191904    -0.14780
H633        H  0.53180807  0.23428993  0.52667945     0.11360
H634        H  0.56152569  0.26586007  0.41792429     0.11360
H635        H  0.54475483  0.31665336  0.43446826     0.11360
H636        H  0.50612701  0.28433162  0.53632133     0.11360
C637        C  0.53484266  0.99918523  0.30155146    -0.14780
C638        C  0.53423734  0.97142789  0.28085042     0.07370
C639        C  0.53482864  0.97197284  0.24079614    -0.14780
C640        C  0.53358591  0.99965867  0.22170774    -0.14780
C641        C  0.53187183  0.02743785  0.24227129     0.07370
C642        C  0.53367215  0.02695100  0.28244037    -0.14780
H643        H  0.53444791  0.99943518  0.33226528     0.11360
H644        H  0.53490780  0.95079620  0.22397612     0.11360
H645        H  0.53270609  0.99921690  0.19096790     0.11360
H646        H  0.53294252  0.04806086  0.29933021     0.11360
C647        C  0.51609184  0.52362695  0.22753800    -0.14780
C648        C  0.51002944  0.52261410  0.26675419     0.07370
C649        C  0.50572671  0.49377317  0.28261886    -0.14780
C650        C  0.50785779  0.46680773  0.26004447    -0.14780
C651        C  0.51419344  0.46790727  0.22090091     0.07370
C652        C  0.51808941  0.49675835  0.20501352    -0.14780
H653        H  0.51923907  0.54536514  0.21389745     0.11360
H654        H  0.50075382  0.49201052  0.31242234     0.11360
H655        H  0.50478339  0.44497993  0.27350057     0.11360
H656        H  0.52316790  0.49861906  0.17524936     0.11360
C657        C  0.53458609  0.72151714  0.31371564    -0.14780
C658        C  0.51086237  0.72610860  0.34000775     0.07370
C659        C  0.51846336  0.73871028  0.37616350    -0.14780
C660        C  0.54785119  0.75119771  0.38258762    -0.14780
C661        C  0.56676387  0.75412801  0.35102335     0.07370
C662        C  0.56447293  0.73067592  0.32347236    -0.14780
H663        H  0.53068952  0.71093957  0.28613838     0.11360
H664        H  0.50158775  0.74009511  0.39826943     0.11360
H665        H  0.55223362  0.76476198  0.40827073     0.11360
H666        H  0.58187838  0.72840647  0.30206492     0.11360
C667        C  0.42948653  0.79784780  0.43580831    -0.14780
C668        C  0.41182387  0.81683967  0.45975191     0.07370
C669        C  0.41863226  0.84829033  0.46267317    -0.14780
C670        C  0.44300554  0.86045930  0.44275391    -0.14780
C671        C  0.46170337  0.84129211  0.42015567     0.07370
C672        C  0.45430523  0.80991262  0.41632473    -0.14780
H673        H  0.42556814  0.77326771  0.43443651     0.11360
H674        H  0.40618844  0.86312227  0.48216992     0.11360
H675        H  0.44784738  0.88478160  0.44608320     0.11360
H676        H  0.46789387  0.79464010  0.39862165     0.11360
C677        C  0.42978756  0.82048237  0.17961033    -0.14780
C678        C  0.41951597  0.79136913  0.19020564     0.07370
C679        C  0.42718742  0.78139491  0.22684785    -0.14780
C680        C  0.44810706  0.79795989  0.25021154    -0.14780
C681        C  0.46178409  0.82493322  0.23746979     0.07370
C682        C  0.45074802  0.83723660  0.20315594    -0.14780
H683        H  0.42492245  0.82835397  0.15115196     0.11360
H684        H  0.42014394  0.75880932  0.23545761     0.11360
H685        H  0.45607328  0.78793276  0.27656084     0.11360
H686        H  0.46106684  0.85778220  0.19240988     0.11360
C687        C  0.39708435  0.65822269  0.42292704    -0.14780
C688        C  0.42616881  0.64484983  0.43183821     0.07370
C689        C  0.44015128  0.65295329  0.46698621    -0.14780
C690        C  0.42697717  0.67608053  0.49037689    -0.14780
C691        C  0.39989381  0.69189421  0.47915164     0.07370
C692        C  0.38417228  0.68139857  0.44616065    -0.14780
H693        H  0.38550488  0.65261034  0.39605107     0.11360
H694        H  0.46241322  0.64335952  0.47491840     0.11360
H695        H  0.43856498  0.68248935  0.51672607     0.11360
H696        H  0.36305108  0.69262737  0.43685188     0.11360
C697        C  0.43008218  0.61797103  0.18209443    -0.14780
C698        C  0.42677112  0.62995588  0.21895166     0.07370
C699        C  0.39999749  0.64701575  0.22727672    -0.14780
C700        C  0.38327355  0.66060428  0.19773516    -0.14780
C701        C  0.39355481  0.65636875  0.16069871     0.07370
C702        C  0.41277164  0.63097207  0.15260180    -0.14780
H703        H  0.44989315  0.60385874  0.17511252     0.11360
H704        H  0.39625754  0.65537262  0.25601754     0.11360
H705        H  0.36750020  0.67919779  0.20458078     0.11360
H706        H  0.41988160  0.62637808  0.12375911     0.11360
C707        C  0.60913437  0.63665554  0.42431149    -0.14780
C708        C  0.61478891  0.66851768  0.42106040     0.07370
C709        C  0.59400175  0.68536117  0.39877875    -0.14780
C710        C  0.56662609  0.67190186  0.38447416    -0.14780
C711        C  0.55955634  0.64096971  0.39007223     0.07370
C712        C  0.58205896  0.62291674  0.40851403    -0.14780
H713        H  0.62409738  0.62306458  0.44245551     0.11360
H714        H  0.59688583  0.70993971  0.39685301     0.11360
H715        H  0.54986542  0.68605847  0.37067430     0.11360
H716        H  0.57768971  0.59887475  0.41332749     0.11360
C717        C  0.60333242  0.69649593  0.18988722    -0.14780
C718        C  0.59978909  0.68964708  0.15092205     0.07370
C719        C  0.58243283  0.66360722  0.13941276    -0.14780
C720        C  0.56586661  0.64712651  0.16580726    -0.14780
C721        C  0.56696322  0.65596112  0.20432760     0.07370
C722        C  0.58723229  0.67962819  0.21637898    -0.14780
H723        H  0.61552060  0.71705152  0.19945799     0.11360
H724        H  0.57842123  0.65846325  0.10945901     0.11360
H725        H  0.54968359  0.62972368  0.15560725     0.11360
H726        H  0.58770404  0.68751251  0.24578678     0.11360
C727        C  0.57686713  0.80706844  0.46274143    -0.14780
C728        C  0.60800848  0.79915978  0.45661713     0.07370
C729        C  0.62577962  0.82027384  0.43696792    -0.14780
C730        C  0.61226341  0.84689612  0.42125042    -0.14780
C731        C  0.58079609  0.85423855  0.42597341     0.07370
C732        C  0.56364877  0.83429964  0.44817080    -0.14780
H733        H  0.56236210  0.79174201  0.47804753     0.11360
H734        H  0.64982312  0.81530404  0.43182581     0.11360
H735        H  0.62603402  0.86083735  0.40319257     0.11360
H736        H  0.53922691  0.83834172  0.45162047     0.11360
C737        C  0.56200953  0.84579962  0.11815669    -0.14780
C738        C  0.58927310  0.82842422  0.12229516     0.07370
C739        C  0.61194910  0.83839884  0.14891254    -0.14780
C740        C  0.60469530  0.86120593  0.17589053    -0.14780
C741        C  0.57442240  0.87267843  0.17721582     0.07370
C742        C  0.55496835  0.86853198  0.14516201    -0.14780
H743        H  0.54465015  0.83958033  0.09670165     0.11360
H744        H  0.63366281  0.82617897  0.15189962     0.11360
H745        H  0.62041881  0.86480145  0.19998923     0.11360
H746        H  0.53174516  0.87785950  0.14513531     0.11360
C747        C  0.50159608  0.69899142  0.98605641    -0.14780
C748        C  0.51770025  0.68044231  0.01174130     0.07370
C749        C  0.50151095  0.67328677  0.04419905    -0.14780
C750        C  0.48706273  0.69819990  0.06228131    -0.14780
C751        C  0.48204548  0.72531109  0.04170116     0.07370
C752        C  0.48594066  0.72408865  0.00196469    -0.14780
H753        H  0.50859435  0.70001258  0.95683668     0.11360
H754        H  0.50897908  0.65414751  0.06127218     0.11360
H755        H  0.48283956  0.69685457  0.09217332     0.11360
H756        H  0.47945445  0.74314646  0.98419502     0.11360
C757        C  0.99867889  0.98755409  0.52580875    -0.14780
C758        C  0.99931307  0.98321145  0.48600687     0.07370
C759        C  0.00264793  0.00911714  0.46358063    -0.14780
C760        C  0.00573377  0.03852482  0.98068800    -0.14780
C761        C  0.00523415  0.04268640  0.02056469     0.07370
C762        C  0.00146102  0.01681190  0.04278294    -0.14780
H763        H  0.99590089  0.96821643  0.54413941     0.11360
H764        H  0.00320951  0.00663336  0.43296480     0.11360
H765        H  0.00828737  0.05805631  0.96261255     0.11360
H766        H  0.00078513  0.01911858  0.07341090     0.11360
C767        C  0.02511438  0.53954307  0.01885062    -0.14780
C768        C  0.02455085  0.53967921  0.47865371     0.07370
C769        C  0.02695506  0.51154009  0.45885391    -0.14780
C770        C  0.02877618  0.48399749  0.97859334    -0.14780
C771        C  0.02850627  0.48378757  0.01873638     0.07370
C772        C  0.02720876  0.51198009  0.03863379    -0.14780
H773        H  0.02375474  0.56087091  0.03523208     0.11360
H774        H  0.02689621  0.51072892  0.42812324     0.11360
H775        H  0.03013261  0.46270081  0.46218203     0.11360
H776        H  0.02702112  0.51270208  0.06935544     0.11360
C777        C  0.95635383  0.75516959  0.38592871    -0.14780
C778        C  0.94008911  0.76147642  0.41933783     0.07370
C779        C  0.94515369  0.74086461  0.44857981    -0.14780
C780        C  0.97550287  0.73106213  0.45458591    -0.14780
C781        C  0.99740751  0.73593217  0.42667460     0.07370
C782        C  0.98690304  0.74491788  0.39042509    -0.14780
H783        H  0.94956567  0.76620987  0.35978401     0.11360
H784        H  0.92965962  0.74044496  0.47217283     0.11360
H785        H  0.98220348  0.72131099  0.48132239     0.11360
H786        H  0.00239082  0.74566771  0.36685302     0.11360
C787        C  0.72797260  0.76287929  0.13170548    -0.14780
C788        C  0.72728279  0.76057692  0.09152292     0.07370
C789        C  0.75535691  0.75998534  0.07287921    -0.14780
C790        C  0.78321771  0.76032557  0.09351372    -0.14780
C791        C  0.78416860  0.76131934  0.13364794     0.07370
C792        C  0.75616185  0.76336080  0.15257447    -0.14780
H793        H  0.70670834  0.76340313  0.14713425     0.11360
H794        H  0.75591548  0.75835015  0.04219895     0.11360
H795        H  0.80423591  0.75931406  0.07760252     0.11360
H796        H  0.75601491  0.76439397  0.18328927     0.11360
C797        C  0.97018775  0.71682498  0.27338115    -0.14780
C798        C  0.93783555  0.71535729  0.27100919     0.07370
C799        C  0.92269363  0.69210826  0.29037908    -0.14780
C800        C  0.93953394  0.67152085  0.31279486    -0.14780
C801        C  0.97166691  0.67391453  0.31608429     0.07370
C802        C  0.98687754  0.69642578  0.29590790    -0.14780
H803        H  0.98259742  0.73431773  0.25875496     0.11360
H804        H  0.89780870  0.69013758  0.28874059     0.11360
H805        H  0.92739375  0.65498370  0.32927065     0.11360
H806        H  0.01164355  0.69920440  0.29919929     0.11360
C807        C  0.93442876  0.71013397  0.05388199    -0.14780
C808        C  0.94390595  0.72663796  0.08710803     0.07370
C809        C  0.97357691  0.72039197  0.10218756    -0.14780
C810        C  0.99429423  0.70100760  0.08283258    -0.14780
C811        C  0.98613930  0.68687151  0.04766280     0.07370
C812        C  0.95519534  0.69020284  0.03462534    -0.14780
H813        H  0.91181310  0.71433645  0.04126389     0.11360
H814        H  0.98151240  0.73215170  0.12805754     0.11360
H815        H  0.01751907  0.69851300  0.09442848     0.11360
H816        H  0.94785491  0.67965500  0.00776193     0.11360
C817        C  0.88957124  0.82788204  0.32009861    -0.14780
C818        C  0.89276854  0.83556411  0.28191738     0.07370
C819        C  0.91142079  0.86140794  0.27474778    -0.14780
C820        C  0.92836029  0.87716012  0.30412328    -0.14780
C821        C  0.92749077  0.86744879  0.34179720     0.07370
C822        C  0.90671446  0.84340270  0.34936727    -0.14780
H823        H  0.87643130  0.80777567  0.32702478     0.11360
H824        H  0.91514852  0.86774296  0.24571113     0.11360
H825        H  0.94444527  0.89484478  0.29671209     0.11360
H826        H  0.90567509  0.83478074  0.37787138     0.11360
C827        C  0.86343714  0.85211477  0.02466234    -0.14780
C828        C  0.86168067  0.84665590  0.06344052     0.07370
C829        C  0.87063349  0.86997348  0.08968313    -0.14780
C830        C  0.89044011  0.89288531  0.07817476    -0.14780
C831        C  0.89933529  0.89282635  0.04035645     0.07370
C832        C  0.88126300  0.87655348  0.01301602    -0.14780
H833        H  0.85612529  0.83469090  0.00389032     0.11360
H834        H  0.86861923  0.86653009  0.11985103     0.11360
H835        H  0.90343141  0.90597972  0.09964564     0.11360
H836        H  0.88703787  0.87715137  0.98332249     0.11360
C837        C  0.25059352  0.73642946  0.16486202    -0.14780
C838        C  0.22319289  0.74186840  0.14406714     0.07370
C839        C  0.22478501  0.74649162  0.10471516    -0.14780
C840        C  0.25330235  0.74662101  0.08687750    -0.14780
C841        C  0.28076269  0.74208186  0.10804139     0.07370
C842        C  0.27893713  0.73647594  0.14711882    -0.14780
H843        H  0.25024932  0.73251792  0.19506519     0.11360
H844        H  0.20404240  0.75062050  0.08778968     0.11360
H845        H  0.25388328  0.75098766  0.05680009     0.11360
H846        H  0.29955637  0.73262174  0.16438892     0.11360
C847        C  0.09640114  0.79691409  0.34359290    -0.14620
C848        C  0.10555929  0.81191192  0.31108910     0.07370
C849        C  0.09367030  0.84121254  0.30345774    -0.14780
C850        C  0.07094741  0.85421313  0.32607440    -0.14780
C851        C  0.05959218  0.83802787  0.35668222     0.07370
C852        C  0.07348572  0.80984114  0.36623051    -0.14780
H853        H  0.10456335  0.77385405  0.34921249     0.11360
H854        H  0.09982913  0.85270540  0.27782539     0.11360
H855        H  0.06113788  0.87617108  0.31827526     0.11360
H856        H  0.06566168  0.79706815  0.39010472     0.11360
C857        C  0.07664458  0.80847336  0.07170340    -0.14780
C858        C  0.06534668  0.78098972  0.08700437     0.07370
C859        C  0.03362084  0.77542691  0.08201356    -0.14780
C860        C  0.01403642  0.79497683  0.06202918    -0.14780
C861        C  0.02479699  0.82162375  0.04501470     0.07370
C862        C  0.05656226  0.82853818  0.05064771    -0.14780
H863        H  0.10082813  0.81414471  0.07536259     0.11360
H864        H  0.02342777  0.75577571  0.09454227     0.11360
H865        H  0.98988703  0.78875312  0.05972112     0.11360
H866        H  0.06595978  0.84882229  0.03817709     0.11360
C867        C  0.10342309  0.62207587  0.10700378    -0.14780
C868        C  0.12264362  0.64803959  0.10868734     0.07370
C869        C  0.14516116  0.65071265  0.08101939    -0.14780
C870        C  0.14034519  0.63516650  0.04636462    -0.14780
C871        C  0.11197396  0.62016598  0.04053878     0.07370
C872        C  0.09906484  0.60674349  0.07213269    -0.14780
H873        H  0.08755204  0.61769028  0.12944423     0.11360
H874        H  0.16211622  0.66892734  0.08283021     0.11360
H875        H  0.15321686  0.64251931  0.02230256     0.11360
H876        H  0.07943920  0.59151865  0.06861436     0.11360
C877        C  0.13137521  0.67858303  0.32358059    -0.14780
C878        C  0.12061860  0.68221752  0.28606885     0.07370
C879        C  0.09717119  0.66242379  0.27185557    -0.14780
C880        C  0.08259883  0.64183330  0.29562247    -0.14780
C881        C  0.09058057  0.64107813  0.33444351     0.07370
C882        C  0.11644160  0.65828451  0.34753366    -0.14780
H883        H  0.14887552  0.69389051  0.33560047     0.11360
H884        H  0.08800613  0.66492648  0.24324031     0.11360
H885        H  0.06223679  0.62982451  0.28483659     0.11360
H886        H  0.12255416  0.65901408  0.37754021     0.11360
C887        C  0.01539137  0.80633947  0.23732817    -0.14780
C888        C  0.03022162  0.79309155  0.20595027     0.07370
C889        C  0.03615995  0.81170362  0.17492330    -0.14780
C890        C  0.01928212  0.83876336  0.17046781    -0.14780
C891        C  0.99412660  0.84273667  0.19400012     0.07370
C892        C  0.99940750  0.83408780  0.23200568    -0.14780
H893        H  0.01308546  0.79396445  0.26337401     0.11360
H894        H  0.05138278  0.80407336  0.15299414     0.11360
H895        H  0.01986534  0.85007282  0.14346617     0.11360
H896        H  0.98368951  0.84174648  0.25370727     0.11360
O897        O  0.03740925  0.74712213  0.67102822    -0.82320
O898        O  0.16867133  0.74607783  0.64341101    -0.67010
O899        O  0.09501257  0.72192239  0.68641454    -1.13610
C900        C  0.11572626  0.79317294  0.77889957     1.04570
O901        O  0.19297876  0.74115702  0.69998294    -0.80220
O902        O  0.15333395  0.71757524  0.75348646    -0.67800
Ni903      Ni  0.06039411  0.71084996  0.65633876     1.34870
C904        C  0.12680397  0.71109197  0.76574941     0.83300
O905        O  0.12784735  0.70058664  0.62614752    -0.80760
O906        O  0.08441256  0.67582860  0.64146278    -0.91030
C907        C  0.19329539  0.74338804  0.66355140     0.82880
O908        O  0.07188147  0.73088693  0.61099712    -0.69230
O909        O  0.14159431  0.77845626  0.77951797    -0.88520
C910        C  0.08352351  0.75753586  0.61000834     0.83710
C911        C  0.11153670  0.67613327  0.62773038     1.05270
H912        H  0.13451781  0.78446487  0.69222619     0.37080
O913        O  0.13359582  0.76406733  0.70236056    -1.11180
O914        O  0.10405873  0.72915245  0.76089470    -0.67830
Ni915      Ni  0.09405349  0.75610625  0.71953569     1.26350
O916        O  0.10794124  0.76355721  0.63020697    -0.68060
O917        O  0.09573130  0.79026170  0.75227109    -0.80350
C918        C  0.03796509  0.76048593  0.70363177     0.83090
O919        O  0.05304951  0.74908273  0.73069524    -0.67530
Ni920      Ni  0.16574579  0.75849548  0.73886977     1.27450
Ni921      Ni  0.13076743  0.73382208  0.66283855     1.26060
H922        H  0.10029376  0.70380585  0.70033568     0.37630
O923        O  0.95674394  0.83606008  0.64373048    -0.82320
O924        O  0.83721317  0.75187473  0.63301763    -0.67010
O925        O  0.90120537  0.80855112  0.65126455    -1.13610
C926        C  0.92020516  0.73710081  0.74712883     1.04570
O927        O  0.82015256  0.76832084  0.68863347    -0.80220
O928        O  0.86215856  0.79502985  0.74790677    -0.67800
Ni929      Ni  0.92556726  0.81906198  0.60955246     1.34870
C930        C  0.88633648  0.81195005  0.75041008     0.83300
O931        O  0.85111948  0.80415977  0.60016603    -0.80760
O932        O  0.89503946  0.80524397  0.57306738    -0.91030
C933        C  0.81489053  0.75948613  0.65362719     0.82880
O934        O  0.94212756  0.77819102  0.61047772    -0.69230
O935        O  0.89065681  0.73840098  0.75047725    -0.88520
C936        C  0.92626023  0.75396792  0.60261963     0.83710
C937        C  0.86801538  0.81563495  0.57606981     1.05270
H938        H  0.89002886  0.73762312  0.67211618     0.37080
O939        O  0.88443934  0.75824116  0.68023946    -1.11180
O940        O  0.90815135  0.80808623  0.72793128    -0.67830
Ni941      Ni  0.92008339  0.78151015  0.68732694     1.26350
O942        O  0.89646163  0.75359528  0.60608982    -0.68060
O943        O  0.93529050  0.75289959  0.72356355    -0.80350
C944        C  0.96661131  0.82788535  0.67629131     0.83090
O945        O  0.95627518  0.80471820  0.69304931    -0.67530
Ni946      Ni  0.85652872  0.75514826  0.72041170     1.27450
Ni947      Ni  0.86924295  0.77980135  0.63929592     1.26060
H948        H  0.89280001  0.82679777  0.66335551     0.37630
O949        O  0.03873152  0.72486342  0.96853472    -0.82320
O950        O  0.01520717  0.59283503  0.97862167    -0.67010
O951        O  0.05547779  0.66396316  0.95118807    -1.13610
C952        C  0.98834365  0.65997941  0.84786749     1.04570
O953        O  0.02681370  0.57152047  0.92263032    -0.80220
O954        O  0.05328704  0.61019617  0.86730463    -0.67800
Ni955      Ni  0.06734864  0.69440896  0.98774932     1.34870
C956        C  0.06527380  0.63636296  0.86124785     0.83300
O957        O  0.06347410  0.62310950  0.50881288    -0.80760
O958        O  0.09517622  0.66389738  0.50716218    -0.91030
C959        C  0.02145616  0.56930051  0.95845389     0.82880
O960        O  0.03790722  0.68595929  0.02640366    -0.69230
O961        O  0.99425795  0.63088439  0.84791588    -0.88520
C962        C  0.01121617  0.67398422  0.52264311     0.83710
C963        C  0.08935178  0.63614137  0.51613666     1.05270
H964        H  0.98854026  0.63670169  0.93071279     0.37080
O965        O  0.00976767  0.63418012  0.92348381    -1.11180
O966        O  0.05492420  0.66096956  0.87563823    -0.67830
Ni967      Ni  0.02622470  0.67264606  0.91293771     1.26350
O968        O  0.00578869  0.65272253  0.99756118    -0.68060
O969        O  0.99695279  0.67895826  0.87394383    -0.80350
C970        C  0.02944296  0.72712500  0.93413966     0.83090
O971        O  0.04244996  0.71185377  0.90855341    -0.67530
Ni972      Ni  0.01182466  0.60256459  0.88565525     1.27450
Ni973      Ni  0.03538253  0.62899379  0.96694015     1.26060
H974        H  0.07428109  0.65706500  0.93951923     0.37630
O975        O  0.92921746  0.80306229  0.96156525    -0.82320
O976        O  0.99969478  0.92953072  0.99226651    -0.67010
O977        O  0.95285980  0.86035482  0.96116958    -1.13610
C978        C  0.03365697  0.85067796  0.87866991     1.04570
O979        O  0.99057346  0.94605781  0.93367321    -0.80220
O980        O  0.96381405  0.90183961  0.87838541    -0.67800
Ni981      Ni  0.93830733  0.83458685  0.99908068     1.34870
C982        C  0.95311779  0.87487004  0.87060026     0.83300
O983        O  0.94513628  0.90920805  0.51321913    -0.80760
O984        O  0.94500424  0.86476600  0.53825955    -0.91030
C985        C  0.99701431  0.95145463  0.96933893     0.82880
O986        O  0.97991886  0.82175453  0.00612920    -0.69230
O987        O  0.02393312  0.87803215  0.87133274    -0.88520
C988        C  0.00150209  0.83875641  0.52034569     0.83710
C989        C  0.93228495  0.89046105  0.53387891     1.05270
H990        H  0.02470808  0.88136821  0.95389364     0.37080
O991        O  0.00418479  0.88339610  0.94280836    -1.11180
O992        O  0.96448706  0.85175058  0.88664401    -0.67830
Ni993      Ni  0.98703125  0.84481585  0.93279202     1.26350
O994        O  0.00105437  0.86857514  0.01645857    -0.68060
O995        O  0.02200690  0.83393392  0.90399632    -0.80350
C996        C  0.94576645  0.79258140  0.93493900     0.83090
O997        O  0.97049004  0.80533777  0.92498098    -0.67530
Ni998      Ni  0.00500987  0.91062692  0.90200178     1.27450
Ni999      Ni  0.97629149  0.89480016  0.97944816     1.26060
H1000       H  0.93590544  0.86709468  0.94506363     0.37630
O1001       O  0.55370256  0.70183082  0.55678724    -0.82320
O1002       O  0.67300969  0.75546077  0.58808767    -0.67010
O1003       O  0.59363314  0.74814662  0.54431989    -1.13610
C1004       C  0.62986798  0.68541911  0.95360614     1.04570
O1005       O  0.69845870  0.75134642  0.53296414    -0.80220
O1006       O  0.64989278  0.76877006  0.98298238    -0.67800
Ni1007     Ni  0.55915943  0.74413977  0.57361234     1.34870
C1008       C  0.62182967  0.76947546  0.97114952     0.83300
O1009       O  0.61814260  0.78456350  0.60179914    -0.80760
O1010       O  0.56634702  0.78562433  0.59070534    -0.91030
C1011       C  0.69777428  0.75586993  0.56942107     0.82880
O1012       O  0.57712903  0.73029411  0.61959270    -0.69230
O1013       O  0.64886281  0.70803237  0.95117952    -0.88520
C1014       C  0.60152540  0.71477334  0.62365909     0.83710
C1015       C  0.59159841  0.79793452  0.60331101     1.05270
H1016       H  0.65180769  0.70275404  0.54465584     0.37080
O1017       O  0.64437717  0.72089499  0.53198052    -1.11180
O1018       O  0.60519874  0.74511762  0.47222669    -0.67830
Ni1019     Ni  0.60441860  0.71454759  0.51302149     1.26350
O1020       O  0.62514868  0.71942499  0.60379049    -0.68060
O1021       O  0.61740636  0.68057115  0.98434205    -0.80350
C1022       C  0.54744506  0.69501259  0.52203461     0.83090
O1023       O  0.56389247  0.70584933  0.49673505    -0.67530
Ni1024     Ni  0.67195367  0.73101966  0.49341687     1.27450
Ni1025     Ni  0.63240675  0.75210701  0.56776535     1.26060
H1026       H  0.58977327  0.76643812  0.53011108     0.37630
O1027       O  0.46995734  0.75650637  0.59554879    -0.82320
O1028       O  0.33473411  0.74459748  0.61353737    -0.67010
O1029       O  0.41559166  0.73271559  0.58111770    -1.13610
C1030       C  0.39558859  0.80268345  0.99087204     1.04570
O1031       O  0.31380819  0.74738890  0.55465767    -0.80220
O1032       O  0.36192281  0.72485094  0.50881215    -0.67800
Ni1033     Ni  0.44874105  0.72334317  0.61473977     1.34870
C1034       C  0.38999688  0.72076146  0.49973129     0.83300
O1035       O  0.37784338  0.70353130  0.63285491    -0.80760
O1036       O  0.42763112  0.68893474  0.63252580    -0.91030
C1037       C  0.31148147  0.74482776  0.59084944     0.82880
O1038       O  0.43594351  0.74858742  0.65611030    -0.69230
O1039       O  0.37244013  0.78462842  0.98529750    -0.88520
C1040       C  0.41390056  0.76754926  0.66019649     0.83710
C1041       C  0.39949648  0.68434386  0.63984746     1.05270
H1042       H  0.36787609  0.78988629  0.57735216     0.37080
O1043       O  0.37265110  0.77071170  0.56432385    -1.11180
O1044       O  0.41029844  0.74142611  0.50750786    -0.67830
Ni1045     Ni  0.41417390  0.76993430  0.55155013     1.26350
O1046       O  0.38942410  0.76728256  0.63899493    -0.68060
O1047       O  0.40905665  0.80526210  0.52283669    -0.80350
C1048       C  0.47281276  0.75420142  0.56010231     0.83090
O1049       O  0.45662773  0.77153744  0.54023927    -0.67530
Ni1050     Ni  0.34497279  0.76490980  0.52175773     1.27450
Ni1051     Ni  0.37552941  0.73794822  0.59916975     1.26060
H1052       H  0.41458270  0.71465356  0.56482642     0.37630
O1053       O  0.49822667  0.55217843  0.82413611    -0.82320
O1054       O  0.47106568  0.69419628  0.85523068    -0.67010
O1055       O  0.47510905  0.61089418  0.82048217    -1.13610
C1056       C  0.54045374  0.64954068  0.72837839     1.04570
O1057       O  0.46997685  0.71061911  0.79861648    -0.80220
O1058       O  0.45745516  0.66634154  0.75043455    -0.67800
Ni1059     Ni  0.48333727  0.58331232  0.86132713     1.34870
C1060       C  0.45502155  0.63835928  0.74043351     0.83300
O1061       O  0.44011844  0.64437908  0.86907032    -0.80760
O1062       O  0.46528794  0.61015528  0.90278267    -0.91030
C1063       C  0.48030850  0.71328452  0.83218508     0.82880
O1064       O  0.52399244  0.60072616  0.86934546    -0.69230
O1065       O  0.51744895  0.66760790  0.72484133    -0.88520
C1066       C  0.52824313  0.62911523  0.87768261     0.83710
C1067       C  0.44435697  0.63120361  0.89988055     1.05270
H1068       H  0.52377936  0.66448847  0.81413779     0.37080
O1069       O  0.50443181  0.65924164  0.80166993    -1.11180
O1070       O  0.47699189  0.61922845  0.74510699    -0.67830
Ni1071     Ni  0.50808289  0.61796895  0.78574646     1.26350
O1072       O  0.50575330  0.64832424  0.87585793    -0.68060
O1073       O  0.54117818  0.62791795  0.75227338    -0.80350
C1074       C  0.50671522  0.55198516  0.78932174     0.83090
O1075       O  0.51181830  0.57630351  0.77155689    -0.67530
Ni1076     Ni  0.49372763  0.68821187  0.76326864     1.27450
Ni1077     Ni  0.47268973  0.65240111  0.83727144     1.26060
H1078       H  0.45615973  0.60491309  0.80733996     0.37630
O1079       O  0.56085445  0.78503198  0.79733651    -0.82320
O1080       O  0.51658804  0.92105609  0.77801370    -0.67010
O1081       O  0.55635539  0.84651070  0.79543379    -1.13610
C1082       C  0.48694572  0.85466949  0.89827080     1.04570
O1083       O  0.53709209  0.93642799  0.83409403    -0.80220
O1084       O  0.54483983  0.89478713  0.90288648    -0.67800
Ni1085     Ni  0.55356631  0.81462981  0.75917423     1.34870
C1086       C  0.56429856  0.87332524  0.89663451     0.83300
O1087       O  0.55886683  0.88859004  0.73917211    -0.80760
O1088       O  0.54829745  0.84149092  0.71724775    -0.91030
C1089       C  0.52886867  0.94186541  0.79918510     0.82880
O1090       O  0.51010810  0.81336098  0.76553330    -0.69230
O1091       O  0.48558175  0.88357195  0.89244602    -0.88520
C1092       C  0.49208819  0.83468941  0.75435660     0.83710
C1093       C  0.55969342  0.86798381  0.71319124     1.05270
H1094       H  0.49150924  0.87152754  0.82065168     0.37080
O1095       O  0.51269189  0.87654304  0.82723341    -1.11180
O1096       O  0.56634945  0.86389843  0.86342815    -0.67830
Ni1097     Ni  0.53379473  0.84115979  0.84054778     1.26350
O1098       O  0.50094844  0.86289202  0.75404823    -0.68060
O1099       O  0.50832318  0.83700723  0.88504881    -0.80350
C1100       C  0.56301884  0.78417385  0.83352255     0.83090
O1101       O  0.55653869  0.80671041  0.85489036    -0.67530
Ni1102     Ni  0.51272084  0.90884406  0.86515052     1.27450
Ni1103     Ni  0.53518754  0.88291268  0.78348727     1.26060
H1104       H  0.57794687  0.85088598  0.80034674     0.37630
O1105       O  0.72154431  0.23561294  0.96213356    -0.82320
O1106       O  0.58009338  0.20589864  0.98625273    -0.67010
O1107       O  0.66326579  0.21217566  0.95627296    -1.13610
C1108       C  0.62186494  0.27680534  0.86195817     1.04570
O1109       O  0.56291476  0.20505528  0.92891587    -0.80220
O1110       O  0.60670272  0.19395741  0.88206197    -0.67800
Ni1111     Ni  0.69080508  0.22166802  0.99847554     1.34870
C1112       C  0.63488050  0.19155112  0.87412731     0.83300
O1113       O  0.63203879  0.17696837  0.00426262    -0.80760
O1114       O  0.66406899  0.20514005  0.53915188    -0.91030
C1115       C  0.56035000  0.21495173  0.96249734     0.82880
O1116       O  0.67221746  0.26203913  0.00404668    -0.69230
O1117       O  0.60342413  0.25423285  0.85768844    -0.88520
C1118       C  0.64371600  0.26566095  0.01153551     0.83710
C1119       C  0.64308158  0.18428256  0.53631408     1.05270
H1120       H  0.60826577  0.25936077  0.94666740     0.37080
O1121       O  0.61370758  0.24010011  0.93453853    -1.11180
O1122       O  0.65397737  0.21329032  0.88043928    -0.67830
Ni1123     Ni  0.65489484  0.24451091  0.92071857     1.26350
O1124       O  0.62500268  0.24284934  0.00868731    -0.68060
O1125       O  0.64398770  0.27716886  0.88658717    -0.80350
C1126       C  0.72112372  0.24360069  0.92709177     0.83090
O1127       O  0.69642001  0.24876835  0.90835472    -0.67530
Ni1128     Ni  0.58416502  0.22956716  0.89487741     1.27450
Ni1129     Ni  0.62196055  0.20879476  0.97090207     1.26060
H1130       H  0.66986411  0.19336785  0.94373309     0.37630
O1131       O  0.48735915  0.30216478  0.92639479    -0.82320
O1132       O  0.34829844  0.26694174  0.89553498    -0.67010
O1133       O  0.42517636  0.30178348  0.92053696    -1.13610
C1134       C  0.41534632  0.22841093  0.51856713     1.04570
O1135       O  0.33375057  0.28324356  0.95313097    -0.80220
O1136       O  0.37659140  0.28787352  0.02405112    -0.67800
Ni1137     Ni  0.45723855  0.29933223  0.88625860     1.34870
C1138       C  0.39866938  0.30676880  0.02021419     0.83300
O1139       O  0.38300037  0.30874107  0.86156802    -0.80760
O1140       O  0.43040750  0.29811861  0.84238794    -0.91030
C1141       C  0.32729608  0.27588615  0.91786631     0.82880
O1142       O  0.45652240  0.25578436  0.88887961    -0.69230
O1143       O  0.38632767  0.22841454  0.51110738    -0.88520
C1144       C  0.43431017  0.23932466  0.87582145     0.83710
C1145       C  0.40368948  0.30945573  0.83683473     1.05270
H1146       H  0.39765011  0.23735310  0.93970381     0.37080
O1147       O  0.39336314  0.25832760  0.94756788    -1.11180
O1148       O  0.40858034  0.30948843  0.98795023    -0.67830
Ni1149     Ni  0.42986214  0.27691056  0.96426943     1.26350
O1150       O  0.40636220  0.24948502  0.87445903    -0.68060
O1151       O  0.43355194  0.24940913  0.00721940    -0.80350
C1152       C  0.48851917  0.30216821  0.96259517     0.83090
O1153       O  0.46542961  0.29704054  0.98216304    -0.67530
Ni1154     Ni  0.36145831  0.25740215  0.98408100     1.27450
Ni1155     Ni  0.38762374  0.28321402  0.90491006     1.26060
H1156       H  0.42167572  0.32325730  0.92672856     0.37630
O1157       O  0.51111745  0.21268802  0.72277754    -0.82320
O1158       O  0.52236970  0.08010412  0.74451953    -0.67010
O1159       O  0.53526097  0.15870227  0.70940018    -1.13610
C1160       C  0.46566888  0.13648507  0.61523029     1.04570
O1161       O  0.52601182  0.05860072  0.68632447    -0.80220
O1162       O  0.54563750  0.10657461  0.63922599    -0.67800
Ni1163     Ni  0.54497715  0.19169174  0.74331796     1.34870
C1164       C  0.54719339  0.13420812  0.62802238     0.83300
O1165       O  0.56323904  0.12227064  0.76565037    -0.80760
O1166       O  0.58022978  0.17058340  0.76194252    -0.91030
C1167       C  0.52639971  0.05688851  0.72295666     0.82880
O1168       O  0.52089569  0.17926734  0.78443821    -0.69230
O1169       O  0.48437540  0.11342934  0.61186222    -0.88520
C1170       C  0.50008400  0.15904240  0.78615107     0.83710
C1171       C  0.58385475  0.14276222  0.77124582     1.05270
H1172       H  0.47840591  0.11055418  0.70209027     0.37080
O1173       O  0.49780011  0.11572872  0.69100505    -1.11180
O1174       O  0.52527439  0.15318440  0.63478701    -0.67830
Ni1175     Ni  0.49771791  0.15689938  0.67775694     1.26350
O1176       O  0.49917551  0.13502780  0.76450600    -0.68060
O1177       O  0.46256858  0.15084860  0.64648131    -0.80350
C1178       C  0.51300257  0.21542848  0.68737533     0.83090
O1179       O  0.49535413  0.19936040  0.66668138    -0.67530
Ni1180     Ni  0.50626866  0.08771658  0.65041013     1.27450
Ni1181     Ni  0.52958559  0.11961824  0.72877558     1.26060
H1182       H  0.55327445  0.15709978  0.69405456     0.37630
O1183       O  0.56981042  0.29294930  0.68824781    -0.82320
O1184       O  0.51884516  0.41406149  0.71635605    -0.67010
O1185       O  0.52471687  0.33495891  0.67340117    -1.13610
C1186       C  0.58765309  0.36863121  0.58595966     1.04570
O1187       O  0.52386386  0.43988572  0.66192347    -0.80220
O1188       O  0.50456422  0.39132777  0.61134564    -0.67800
Ni1189     Ni  0.52751545  0.30028946  0.70274463     1.34870
C1190       C  0.50345404  0.36332762  0.59959291     0.83300
O1191       O  0.48868940  0.36058082  0.72850912    -0.80760
O1192       O  0.48603113  0.30907233  0.71762631    -0.91030
C1193       C  0.51900570  0.43893654  0.69806931     0.82880
O1194       O  0.54211622  0.31769040  0.74940688    -0.69230
O1195       O  0.56525415  0.38818552  0.58216434    -0.88520
C1196       C  0.55809614  0.34158805  0.75459711     0.83710
C1197       C  0.47451626  0.33471050  0.72957244     1.05270
H1198       H  0.57128145  0.39190566  0.67650767     0.37080
O1199       O  0.55297576  0.38489303  0.66270533    -1.11180
O1200       O  0.52786620  0.34647658  0.60174178    -0.67830
Ni1201     Ni  0.55869570  0.34506706  0.64427355     1.26350
O1202       O  0.55400034  0.36535979  0.73454985    -0.68060
O1203       O  0.59297616  0.35719079  0.61752033    -0.80350
C1204       C  0.57649495  0.28735714  0.65368146     0.83090
O1205       O  0.56661171  0.30493536  0.62832430    -0.67530
Ni1206     Ni  0.54310267  0.41239627  0.62325352     1.27450
Ni1207     Ni  0.52145653  0.37367241  0.69642809     1.26060
H1208       H  0.50625667  0.33166157  0.65810940     0.37630
O1209       O  0.06207428  0.34743259  0.86301289    -0.82320
O1210       O  0.18321708  0.26377541  0.87093661    -0.67010
O1211       O  0.11752090  0.31871133  0.85331641    -1.13610
C1212       C  0.09725531  0.24650596  0.75675437     1.04570
O1213       O  0.19812804  0.27781418  0.81431367    -0.80220
O1214       O  0.15538816  0.30746261  0.76271275    -0.67800
Ni1215     Ni  0.09491355  0.33321893  0.89568932     1.34870
C1216       C  0.12990214  0.32232345  0.75967576     0.83300
O1217       O  0.17042939  0.31823833  0.90154882    -0.80760
O1218       O  0.12759467  0.32265446  0.92940310    -0.91030
C1219       C  0.20461348  0.27026447  0.84892327     0.82880
O1220       O  0.07872207  0.29238158  0.89922201    -0.69230
O1221       O  0.12632843  0.25048745  0.75161112    -0.88520
C1222       C  0.09475342  0.26813337  0.90597538     0.83710
C1223       C  0.15341164  0.33398232  0.92237737     1.05270
H1224       H  0.13042680  0.24663399  0.83277635     0.37080
O1225       O  0.13457311  0.26726640  0.82480273    -1.11180
O1226       O  0.10685122  0.31455086  0.77800605    -0.67830
Ni1227     Ni  0.09784672  0.28946478  0.81953842     1.26350
O1228       O  0.12437720  0.26706381  0.90032972    -0.68060
O1229       O  0.08238326  0.25926271  0.78402154    -0.80350
C1230       C  0.05112307  0.33657380  0.83173133     0.83090
O1231       O  0.06083452  0.31180167  0.81610496    -0.67530
Ni1232     Ni  0.16111758  0.26576878  0.78286170     1.27450
Ni1233     Ni  0.15053991  0.29109485  0.86485320     1.26060
H1234       H  0.12528060  0.33552597  0.83915525     0.37630
O1235       O  0.98959433  0.25074955  0.83288025    -0.82320
O1236       O  0.85831351  0.24586210  0.85849644    -0.67010
O1237       O  0.93277901  0.22414705  0.81493890    -1.13610
C1238       C  0.91405494  0.29555375  0.72787523     1.04570
O1239       O  0.83263579  0.24719508  0.80229899    -0.80220
O1240       O  0.87471825  0.22035524  0.74923247    -0.67800
Ni1241     Ni  0.96765959  0.21401890  0.84477196     1.34870
C1242       C  0.90167459  0.21385197  0.73733598     0.83300
O1243       O  0.89931899  0.19995362  0.87114612    -0.80760
O1244       O  0.94508286  0.17828568  0.85642444    -0.91030
C1245       C  0.83326113  0.24662954  0.83911432     0.82880
O1246       O  0.95535311  0.23360418  0.89145967    -0.69230
O1247       O  0.88814584  0.28092628  0.72502963    -0.88520
C1248       C  0.94073901  0.25880839  0.89503174     0.83710
C1249       C  0.91735102  0.17655248  0.86787232     1.05270
H1250       H  0.89214426  0.28645576  0.81492739     0.37080
O1251       O  0.89341742  0.26645187  0.80251327    -1.11180
O1252       O  0.92336197  0.23314648  0.74160319    -0.67830
Ni1253     Ni  0.93326451  0.25898528  0.78542849     1.26350
O1254       O  0.91685763  0.26383009  0.87406003    -0.68060
O1255       O  0.93160294  0.29417852  0.75682977    -0.80350
C1256       C  0.98862613  0.26379800  0.80093822     0.83090
O1257       O  0.97413675  0.25164950  0.77339943    -0.67530
Ni1258     Ni  0.86205392  0.26218082  0.76435755     1.27450
Ni1259     Ni  0.89619867  0.23458378  0.83819899     1.26060
H1260       H  0.92846240  0.20597350  0.79961966     0.37630
O1261       O  0.96274588  0.22654606  0.54006304    -0.82320
O1262       O  0.01429595  0.09640023  0.51797881    -0.67010
O1263       O  0.96273228  0.16327205  0.54128963    -1.13610
C1264       C  0.03016686  0.16862018  0.64911437     1.04570
O1265       O  0.00110174  0.07851806  0.57389441    -0.80220
O1266       O  0.98364918  0.11500418  0.64108446    -0.67800
Ni1267     Ni  0.94849177  0.19298789  0.50799563     1.34870
C1268       C  0.96000349  0.13254716  0.63857733     0.83300
O1269       O  0.96423573  0.11958980  0.98331934    -0.80760
O1270       O  0.93216006  0.16018092  0.97678237    -0.91030
C1271       C  0.00776181  0.07390643  0.53867440     0.82880
O1272       O  0.98544198  0.19580920  0.47902815    -0.69230
O1273       O  0.03917862  0.14136209  0.64006873    -0.88520
C1274       C  0.01175892  0.18255064  0.97910139     0.83710
C1275       C  0.93959047  0.13202107  0.97037452     1.05270
H1276       H  0.03093303  0.15099775  0.56567584     0.37080
O1277       O  0.01138376  0.14211455  0.57191584    -1.11180
O1278       O  0.95556418  0.14891097  0.61029652    -0.67830
Ni1279     Ni  0.98449998  0.17387460  0.58644170     1.26350
O1280       O  0.01686117  0.15757350  0.49722102    -0.68060
O1281       O  0.00721307  0.18209384  0.63304668    -0.80350
C1282       C  0.96193463  0.22977537  0.57617708     0.83090
O1283       O  0.95769836  0.20707262  0.59694015    -0.67530
Ni1284     Ni  0.01918232  0.11073390  0.60753850     1.27450
Ni1285     Ni  0.98924504  0.13127782  0.52667957     1.26060
H1286       H  0.94383418  0.15315177  0.54755333     0.37630
O1287       O  0.06500919  0.29918096  0.53529398    -0.82320
O1288       O  0.02109834  0.43040835  0.51769955    -0.67010
O1289       O  0.07080566  0.36320089  0.54283721    -1.13610
C1290       C  0.99909788  0.36150224  0.64113711     1.04570
O1291       O  0.03597221  0.45085097  0.57390354    -0.80220
O1292       O  0.05396810  0.41369664  0.64201726    -0.67800
Ni1293     Ni  0.08367550  0.33214060  0.50852111     1.34870
C1294       C  0.07500941  0.39279277  0.64234611     0.83300
O1295       O  0.07021968  0.40521667  0.48462890    -0.80760
O1296       O  0.10232087  0.36426118  0.98167462    -0.91030
C1297       C  0.02802948  0.45382866  0.53834492     0.82880
O1298       O  0.04801023  0.33200920  0.47545023    -0.69230
O1299       O  0.99580845  0.39056378  0.63667381    -0.88520
C1300       C  0.02132596  0.34393999  0.97831865     0.83710
C1301       C  0.09530735  0.39227758  0.97488202     1.05270
H1302       H  0.00282360  0.38027014  0.56300334     0.37080
O1303       O  0.02315036  0.38742543  0.57075358    -1.11180
O1304       O  0.07691526  0.37340848  0.61568198    -0.67830
Ni1305     Ni  0.04686996  0.35344733  0.58454053     1.26350
O1306       O  0.01672779  0.36923565  0.49695744    -0.68060
O1307       O  0.02104342  0.34547452  0.62668161    -0.80350
C1308       C  0.06023597  0.29826382  0.57070721     0.83090
O1309       O  0.07106872  0.31853877  0.59289308    -0.67530
Ni1310     Ni  0.01781815  0.41971079  0.60693739     1.27450
Ni1311     Ni  0.04548903  0.39580322  0.52712322     1.26060
H1312       H  0.08980488  0.37257367  0.55206121     0.37630
C1313       C  0.00079923  0.25228417  0.61847039    -0.14780
C1314       C  0.97579460  0.25735739  0.59317853     0.07370
C1315       C  0.97631666  0.28297614  0.57018331    -0.14780
C1316       C  0.00436947  0.29668766  0.56392590    -0.14780
C1317       C  0.03135206  0.28527131  0.58138961     0.07370
C1318       C  0.02934400  0.26518974  0.61139862    -0.14780
H1319       H  0.99926301  0.23557567  0.64028090     0.11360
H1320       H  0.95666609  0.28859150  0.55198956     0.11360
H1321       H  0.00532939  0.31505298  0.54394349     0.11360
H1322       H  0.04961928  0.25873105  0.62802603     0.11360
C1323       C  0.93873186  0.16999969  0.72932714    -0.14780
C1324       C  0.91016066  0.18366609  0.71904482     0.07370
C1325       C  0.89442978  0.17201337  0.68656914    -0.14780
C1326       C  0.90882484  0.15017180  0.66256702    -0.14780
C1327       C  0.93913028  0.13941339  0.67066390     0.07370
C1328       C  0.95274120  0.14780369  0.70584970    -0.14780
H1329       H  0.95187745  0.17852020  0.75383342     0.11360
H1330       H  0.87267540  0.18214721  0.67754560     0.11360
H1331       H  0.89781651  0.14455176  0.63534684     0.11360
H1332       H  0.97618896  0.14074710  0.71271466     0.11360
C1333       C  0.92844740  0.12183935  0.87893317    -0.14780
C1334       C  0.90751844  0.14666670  0.88142723     0.07370
C1335       C  0.88439291  0.14561173  0.90848278    -0.14780
C1336       C  0.88944263  0.12681721  0.93956367    -0.14780
C1337       C  0.91923442  0.11421047  0.94412396     0.07370
C1338       C  0.93379203  0.10439848  0.91107051    -0.14780
H1339       H  0.94481658  0.12019197  0.85627790     0.11360
H1340       H  0.86636873  0.16291316  0.90969586     0.11360
H1341       H  0.87537436  0.13079936  0.96417364     0.11360
H1342       H  0.95469970  0.09071136  0.91274853     0.11360
C1343       C  0.94692979  0.35865132  0.67164408    -0.14780
C1344       C  0.97521633  0.34480456  0.66185641     0.07370
C1345       C  0.97947782  0.31352346  0.66874022    -0.14780
C1346       C  0.95628569  0.29629522  0.68435192    -0.14780
C1347       C  0.92873811  0.31024619  0.69604115     0.07370
C1348       C  0.92411418  0.34161498  0.68936498    -0.14780
H1349       H  0.94275528  0.38275869  0.66652591     0.11360
H1350       H  0.00129288  0.30251572  0.66318839     0.11360
H1351       H  0.96123969  0.27256672  0.69108977     0.11360
H1352       H  0.90381809  0.35327872  0.69986120     0.11360
C1353       C  0.97683615  0.27236003  0.94901268    -0.14780
C1354       C  0.95407853  0.28236460  0.92309042     0.07370
C1355       C  0.94972672  0.31454672  0.92025789    -0.14780
C1356       C  0.97024482  0.33557664  0.93947041    -0.14780
C1357       C  0.99530335  0.32465322  0.96178715     0.07370
C1358       C  0.99730875  0.29280660  0.96717859    -0.14780
H1359       H  0.98030285  0.24818928  0.95340381     0.11360
H1360       H  0.93228049  0.32335958  0.90081225     0.11360
H1361       H  0.96771078  0.35997143  0.93490778     0.11360
H1362       H  0.01574305  0.28330692  0.98465956     0.11360
C1363       C  0.09953176  0.36959634  0.74113060    -0.14780
C1364       C  0.12407986  0.34883886  0.73341750     0.07370
C1365       C  0.13714158  0.35007074  0.69750734    -0.14780
C1366       C  0.12378299  0.36873535  0.66913255    -0.14780
C1367       C  0.09671663  0.38652029  0.67549555     0.07370
C1368       C  0.08600634  0.38799167  0.71270276    -0.14780
H1369       H  0.08888880  0.36966504  0.76858361     0.11360
H1370       H  0.15574555  0.33452928  0.69014659     0.11360
H1371       H  0.13275621  0.36668285  0.64078944     0.11360
H1372       H  0.06510481  0.40066521  0.71890573     0.11360
C1373       C  0.16621458  0.38112606  0.95934429    -0.14780
C1374       C  0.15720523  0.36750444  0.92438442     0.07370
C1375       C  0.13735777  0.38449507  0.90040881    -0.14780
C1376       C  0.11778986  0.40639578  0.91671298    -0.14780
C1377       C  0.11905050  0.40994742  0.95617083     0.07370
C1378       C  0.14823304  0.40537336  0.97376663    -0.14780
H1379       H  0.18268445  0.36980720  0.97799731     0.11360
H1380       H  0.13240641  0.37704326  0.87160867     0.11360
H1381       H  0.09752216  0.41369491  0.90065513     0.11360
H1382       H  0.15170068  0.41187091  0.00343721     0.11360
C1383       C  0.04759286  0.23442334  0.90623506    -0.14780
C1384       C  0.07722823  0.24115925  0.92143111     0.07370
C1385       C  0.08704792  0.22467776  0.95373164    -0.14780
C1386       C  0.06695267  0.20375659  0.97140404    -0.14780
C1387       C  0.03661600  0.19840173  0.95696785     0.07370
C1388       C  0.02808151  0.21324101  0.92318417    -0.14780
H1389       H  0.03903558  0.24638257  0.88150622     0.11360
H1390       H  0.10949039  0.22936113  0.96671784     0.11360
H1391       H  0.07451906  0.19320896  0.99755325     0.11360
H1392       H  0.00543818  0.20933354  0.91057453     0.11360
C1393       C  0.09587105  0.20459708  0.70654335    -0.14780
C1394       C  0.08009418  0.22578590  0.72989694     0.07370
C1395       C  0.04769711  0.22638515  0.72811591    -0.14780
C1396       C  0.03145765  0.20691006  0.70278203    -0.14780
C1397       C  0.04725593  0.18623387  0.67895080     0.07370
C1398       C  0.07955944  0.18481332  0.68148604    -0.14780
H1399       H  0.12082561  0.20331087  0.70760258     0.11360
H1400       H  0.03489627  0.24229531  0.74583563     0.11360
H1401       H  0.00649255  0.20824406  0.70148338     0.11360
H1402       H  0.09220839  0.16920843  0.66313680     0.11360
C1403       C  0.99831466  0.34383479  0.83778076    -0.14780
C1404       C  0.02295617  0.35017188  0.81462756     0.07370
C1405       C  0.01848375  0.34088381  0.77617111    -0.14780
C1406       C  0.00595778  0.31148032  0.76953182    -0.14780
C1407       C  0.99327414  0.29679966  0.80052248     0.07370
C1408       C  0.98537180  0.31472836  0.83254331    -0.14780
H1409       H  0.99628609  0.35546755  0.86512493     0.11360
H1410       H  0.03270138  0.35038897  0.75462335     0.11360
H1411       H  0.00950625  0.29931758  0.74282836     0.11360
H1412       H  0.97201017  0.30509546  0.85444444     0.11360
C1413       C  0.57030241  0.22601870  0.69094974    -0.14780
C1414       C  0.54190921  0.22413681  0.67023926     0.07370
C1415       C  0.54167577  0.23044874  0.63122289    -0.14780
C1416       C  0.56759761  0.24394474  0.61613140    -0.14780
C1417       C  0.58859261  0.25701730  0.64248930     0.07370
C1418       C  0.59560071  0.23919405  0.67398506    -0.14780
H1419       H  0.57277057  0.22093525  0.72049312     0.11360
H1420       H  0.52117003  0.22712087  0.61337566     0.11360
H1421       H  0.56574764  0.25260109  0.58759916     0.11360
H1422       H  0.61586929  0.24442346  0.69154685     0.11360
C1423       C  0.26966822  0.27481127  0.92336663    -0.14780
C1424       C  0.29563068  0.27773071  0.90109865     0.07370
C1425       C  0.29144764  0.27929698  0.86127853    -0.14780
C1426       C  0.26205201  0.27711102  0.84403258    -0.14780
C1427       C  0.23617101  0.27295516  0.86617893     0.07370
C1428       C  0.24031768  0.27227592  0.90610982    -0.14780
H1429       H  0.27213355  0.27336356  0.95392415     0.11360
H1430       H  0.31108867  0.28173757  0.84325238     0.11360
H1431       H  0.25966265  0.27814153  0.81343312     0.11360
H1432       H  0.22079381  0.26961440  0.92425154     0.11360
C1433       C  0.45060887  0.36765845  0.56592103    -0.14780
C1434       C  0.47334669  0.34960552  0.58417048     0.07370
C1435       C  0.46678202  0.31806466  0.58787923    -0.14780
C1436       C  0.43934007  0.30484097  0.57226381    -0.14780
C1437       C  0.41767849  0.32240920  0.55142075     0.07370
C1438       C  0.42368369  0.35420479  0.54919332    -0.14780
H1439       H  0.45448056  0.39198761  0.56258135     0.11360
H1440       H  0.48334121  0.30327492  0.60206762     0.11360
H1441       H  0.43645669  0.28021144  0.57367775     0.11360
H1442       H  0.40846536  0.36840121  0.53212120     0.11360
C1443       C  0.41133045  0.35274024  0.79761414    -0.14780
C1444       C  0.39872189  0.32323093  0.79993717     0.07370
C1445       C  0.40225308  0.30260873  0.76913144    -0.14780
C1446       C  0.42564558  0.30744149  0.74351719    -0.14780
C1447       C  0.44400410  0.33393873  0.74724145     0.07370
C1448       C  0.43462967  0.35789449  0.77187259    -0.14780
H1449       H  0.40817676  0.36944862  0.82051703     0.11360
H1450       H  0.39196901  0.27998123  0.76968457     0.11360
H1451       H  0.43134871  0.28911823  0.72351627     0.11360
H1452       H  0.44753186  0.37912585  0.77439183     0.11360
C1453       C  0.45944551  0.19386940  0.53869795    -0.14780
C1454       C  0.42812271  0.20223563  0.54051634     0.07370
C1455       C  0.40847981  0.18403382  0.56174499    -0.14780
C1456       C  0.42020957  0.15951077  0.58272735    -0.14780
C1457       C  0.45169924  0.15198195  0.58224946     0.07370
C1458       C  0.47104242  0.16884368  0.55913992    -0.14780
H1459       H  0.47508505  0.20698850  0.52202972     0.11360
H1460       H  0.38416909  0.18954996  0.56347365     0.11360
H1461       H  0.40505054  0.14767790  0.60139887     0.11360
H1462       H  0.49562185  0.16428418  0.55937676     0.11360
C1463       C  0.43125089  0.19997881  0.82255106    -0.14780
C1464       C  0.44287207  0.20907153  0.85868684     0.07370
C1465       C  0.46866307  0.19341014  0.87382502    -0.14780
C1466       C  0.48495476  0.17223611  0.85148979    -0.14780
C1467       C  0.47577558  0.16618329  0.81359125     0.07370
C1468       C  0.44768112  0.17867077  0.80008953    -0.14780
H1469       H  0.41171479  0.21195462  0.80996619     0.11360
H1470       H  0.47816400  0.19996333  0.90158627     0.11360
H1471       H  0.50682428  0.16348679  0.86231412     0.11360
H1472       H  0.44057020  0.17508174  0.77062349     0.11360
C1473       C  0.77933588  0.24272795  0.92282437    -0.14780
C1474       C  0.75015880  0.24587709  0.90534507     0.07370
C1475       C  0.74851210  0.24932053  0.86546095    -0.14780
C1476       C  0.77516286  0.24938749  0.84375923    -0.14780
C1477       C  0.80432906  0.24617368  0.86125190     0.07370
C1478       C  0.80600044  0.24300162  0.90114869    -0.14780
H1479       H  0.78158666  0.23982797  0.95318964     0.11360
H1480       H  0.72643905  0.25149322  0.85065165     0.11360
H1481       H  0.77289442  0.25195418  0.81333446     0.11360
H1482       H  0.82806725  0.24048382  0.91586729     0.11360
C1483       C  0.59481736  0.18780745  0.57003499    -0.14780
C1484       C  0.62401734  0.17411204  0.56831524     0.07370
C1485       C  0.62818999  0.14559370  0.58617056    -0.14780
C1486       C  0.60377876  0.13211888  0.60621146    -0.14780
C1487       C  0.57423884  0.14603700  0.60672758     0.07370
C1488       C  0.57029169  0.17346744  0.58714588    -0.14780
H1489       H  0.59020874  0.20886052  0.55527621     0.11360
H1490       H  0.64981948  0.13329620  0.58353329     0.11360
H1491       H  0.60777448  0.11062508  0.62037623     0.11360
H1492       H  0.54768634  0.18377167  0.58419755     0.11360
C1493       C  0.62596826  0.13726505  0.85913497    -0.14780
C1494       C  0.64354501  0.16368070  0.85267596     0.07370
C1495       C  0.65413983  0.16811311  0.81611002    -0.14780
C1496       C  0.63829135  0.15388789  0.78559145    -0.14780
C1497       C  0.61233463  0.13580915  0.79267625     0.07370
C1498       C  0.60947439  0.12357780  0.82872352    -0.14780
H1499       H  0.61893417  0.13236817  0.88762314     0.11360
H1500       H  0.66899097  0.18734126  0.81052847     0.11360
H1501       H  0.64181677  0.16234680  0.75738629     0.11360
H1502       H  0.59040598  0.10858950  0.83465634     0.11360
C1503       C  0.64945775  0.31980944  0.54174175    -0.14780
C1504       C  0.63116092  0.29656438  0.52429151     0.07370
C1505       C  0.59942343  0.30247759  0.52015213    -0.14780
C1506       C  0.58579696  0.32973087  0.53403561    -0.14780
C1507       C  0.60333551  0.35175287  0.55448101     0.07370
C1508       C  0.63563235  0.34672154  0.55728111    -0.14780
H1509       H  0.67404384  0.31627087  0.54579575     0.11360
H1510       H  0.58489791  0.28496036  0.00778790     0.11360
H1511       H  0.56091415  0.33179699  0.53297306     0.11360
H1512       H  0.64985202  0.36238648  0.57440291     0.11360
C1513       C  0.62488023  0.30357372  0.80039049    -0.14780
C1514       C  0.61530962  0.30355903  0.83803833     0.07370
C1515       C  0.59166445  0.32387532  0.84905519    -0.14780
C1516       C  0.57553528  0.34132418  0.82203779    -0.14780
C1517       C  0.58304336  0.33899415  0.78361022     0.07370
C1518       C  0.60910131  0.32146330  0.77350139    -0.14780
H1519       H  0.64236488  0.28745475  0.79097550     0.11360
H1520       H  0.58332065  0.32357752  0.87774530     0.11360
H1521       H  0.55491846  0.35361737  0.83040189     0.11360
H1522       H  0.61468051  0.31835694  0.74386489     0.11360
C1523       C  0.53345685  0.25174621  0.00545768    -0.14780
C1524       C  0.54668487  0.24508186  0.97021667     0.07370
C1525       C  0.55110529  0.26923069  0.94503344    -0.14780
C1526       C  0.54218793  0.29888409  0.95515221    -0.14780
C1527       C  0.51891243  0.30129727  0.98156153     0.07370
C1528       C  0.52047027  0.28082645  0.01192148    -0.14780
H1529       H  0.53180870  0.23428843  0.02668097     0.11360
H1530       H  0.56152720  0.26586117  0.91792737     0.11360
H1531       H  0.54475484  0.31665374  0.93447222     0.11360
H1532       H  0.50612641  0.28432942  0.03632352     0.11360
C1533       C  0.53483839  0.99918235  0.80154776    -0.14780
C1534       C  0.53423319  0.97142533  0.78084599     0.07370
C1535       C  0.53482451  0.97197101  0.74079175    -0.14780
C1536       C  0.53358252  0.99965724  0.72170415    -0.14780
C1537       C  0.53186914  0.02743615  0.74226839     0.07370
C1538       C  0.53366856  0.02694852  0.78243745    -0.14780
H1539       H  0.53444359  0.99943177  0.83226156     0.11360
H1540       H  0.53490369  0.95079469  0.72397110     0.11360
H1541       H  0.53270317  0.99921601  0.69096431     0.11360
H1542       H  0.53293915  0.04805810  0.79932784     0.11360
C1543       C  0.51609110  0.52362700  0.72753768    -0.14780
C1544       C  0.51002877  0.52261402  0.76675387     0.07370
C1545       C  0.50572697  0.49377299  0.78261868    -0.14780
C1546       C  0.50785898  0.46680758  0.76004442    -0.14780
C1547       C  0.51419469  0.46790725  0.72090089     0.07370
C1548       C  0.51808963  0.49675842  0.70501335    -0.14780
H1549       H  0.51923768  0.54536525  0.71389703     0.11360
H1550       H  0.50075418  0.49201026  0.81242217     0.11360
H1551       H  0.50478528  0.44497970  0.77350059     0.11360
H1552       H  0.52316808  0.49861924  0.67524919     0.11360
C1553       C  0.53458939  0.72151662  0.81371469    -0.14780
C1554       C  0.51086718  0.72610743  0.84000901     0.07370
C1555       C  0.51847048  0.73870718  0.87616509    -0.14780
C1556       C  0.54785885  0.75119386  0.88258764    -0.14780
C1557       C  0.56676985  0.75412540  0.85102199     0.07370
C1558       C  0.56447694  0.73067423  0.82346987    -0.14780
H1559       H  0.53069117  0.71093988  0.78613723     0.11360
H1560       H  0.50159611  0.74009143  0.89827249     0.11360
H1561       H  0.55224297  0.76475677  0.90827134     0.11360
H1562       H  0.58188141  0.72840476  0.80206122     0.11360
C1563       C  0.42948181  0.79784267  0.93579866    -0.14780
C1564       C  0.41181488  0.81683560  0.95973615     0.07370
C1565       C  0.41861928  0.84828724  0.96265205    -0.14780
C1566       C  0.44299356  0.86045611  0.94273467    -0.14780
C1567       C  0.46169610  0.84128805  0.92014344     0.07370
C1568       C  0.45430135  0.80990754  0.91631674    -0.14780
H1569       H  0.42556631  0.77326206  0.93443120     0.11360
H1570       H  0.40617197  0.86312021  0.98214416     0.11360
H1571       H  0.44783250  0.88477920  0.94606042     0.11360
H1572       H  0.46789357  0.79463423  0.89861894     0.11360
C1573       C  0.42979015  0.82046957  0.67961649    -0.14780
C1574       C  0.41952313  0.79135493  0.69021258     0.07370
C1575       C  0.42719948  0.78138048  0.72685325    -0.14780
C1576       C  0.44811926  0.79794732  0.75021441    -0.14780
C1577       C  0.46179195  0.82492241  0.73747127     0.07370
C1578       C  0.45075117  0.83722546  0.70315940    -0.14780
H1579       H  0.42492087  0.82834147  0.65115919     0.11360
H1580       H  0.42015915  0.75879402  0.73546354     0.11360
H1581       H  0.45608898  0.78792058  0.77656249     0.11360
H1582       H  0.46106647  0.85777254  0.69241251     0.11360
C1583       C  0.39708353  0.65821672  0.92293020    -0.14780
C1584       C  0.42616961  0.64484718  0.93184065     0.07370
C1585       C  0.44015317  0.65295415  0.96698682    -0.14780
C1586       C  0.42697844  0.67608196  0.99037594    -0.14780
C1587       C  0.39989324  0.69189251  0.97915092     0.07370
C1588       C  0.38417068  0.68139308  0.94616239    -0.14780
H1589       H  0.38550347  0.65260175  0.89605537     0.11360
H1590       H  0.46241645  0.64336301  0.97491816     0.11360
H1591       H  0.43856713  0.68249387  0.01672344     0.11360
H1592       H  0.36304805  0.69261945  0.93685401     0.11360
C1593       C  0.43007614  0.61796688  0.68210230    -0.14780
C1594       C  0.42676804  0.62995766  0.71895731     0.07370
C1595       C  0.39999510  0.64701879  0.72728174    -0.14780
C1596       C  0.38326752  0.66060108  0.69773867    -0.14780
C1597       C  0.39354627  0.65636040  0.66070176     0.07370
C1598       C  0.41276198  0.63096207  0.65260857    -0.14780
H1599       H  0.44988660  0.60385360  0.67512118     0.11360
H1600       H  0.39625739  0.65538028  0.75602117     0.11360
H1601       H  0.36749424  0.67919526  0.70458182     0.11360
H1602       H  0.41986936  0.62636337  0.62376583     0.11360
C1603       C  0.60913199  0.63665397  0.92432243    -0.14780
C1604       C  0.61478929  0.66851513  0.92106562     0.07370
C1605       C  0.59400610  0.68535695  0.89877663    -0.14780
C1606       C  0.56663093  0.67189767  0.88447026    -0.14780
C1607       C  0.55955789  0.64096717  0.89007453     0.07370
C1608       C  0.58205708  0.62291513  0.90852381    -0.14780
H1609       H  0.62409206  0.62306444  0.94247169     0.11360
H1610       H  0.59689263  0.70993477  0.89684561     0.11360
H1611       H  0.54987304  0.68605328  0.87066390     0.11360
H1612       H  0.57768522  0.59887438  0.91334213     0.11360
C1613       C  0.60333146  0.69649170  0.68988359    -0.14780
C1614       C  0.59978617  0.68964362  0.65091847     0.07370
C1615       C  0.58242779  0.66360511  0.63940946    -0.14780
C1616       C  0.56586159  0.64712508  0.66580452    -0.14780
C1617       C  0.56696031  0.65595903  0.70432502     0.07370
C1618       C  0.58723128  0.67962461  0.71637589    -0.14780
H1619       H  0.61552141  0.71704632  0.69945413     0.11360
H1620       H  0.57841478  0.65846182  0.60945580     0.11360
H1621       H  0.54967712  0.62972338  0.65560507     0.11360
H1622       H  0.58770468  0.68750840  0.74578390     0.11360
C1623       C  0.57686161  0.80706666  0.96274090    -0.14780
C1624       C  0.60800408  0.79916076  0.95661965     0.07370
C1625       C  0.62577523  0.82027744  0.93697458    -0.14780
C1626       C  0.61225823  0.84689946  0.92125755    -0.14780
C1627       C  0.58078977  0.85423878  0.92597654     0.07370
C1628       C  0.56364216  0.83429735  0.94817025    -0.14780
H1629       H  0.56235658  0.79173828  0.97804415     0.11360
H1630       H  0.64981961  0.81530994  0.93183515     0.11360
H1631       H  0.62602923  0.86084270  0.90320247     0.11360
H1632       H  0.53921953  0.83833698  0.95161659     0.11360
C1633       C  0.56201366  0.84579805  0.61815640    -0.14780
C1634       C  0.58927634  0.82842123  0.62229444     0.07370
C1635       C  0.61195324  0.83839486  0.64891124    -0.14780
C1636       C  0.60470109  0.86120264  0.67588906    -0.14780
C1637       C  0.57442880  0.87267666  0.67721504     0.07370
C1638       C  0.55497420  0.86853117  0.64516155    -0.14780
H1639       H  0.54465368  0.83957958  0.59670176     0.11360
H1640       H  0.63366639  0.82617396  0.65189790     0.11360
H1641       H  0.62042514  0.86479751  0.69998737     0.11360
H1642       H  0.53175155  0.87786002  0.64513520     0.11360
C1643       C  0.50159531  0.69898860  0.48605557    -0.14780
C1644       C  0.51770204  0.68043846  0.51173685     0.07370
C1645       C  0.50151441  0.67327848  0.54419450    -0.14780
C1646       C  0.48706452  0.69818871  0.56228104    -0.14780
C1647       C  0.48204581  0.72530184  0.54170535     0.07370
C1648       C  0.48593934  0.72408353  0.50196846    -0.14780
H1649       H  0.50859224  0.70001299  0.45683558     0.11360
H1650       H  0.50898431  0.65413789  0.56126426     0.11360
H1651       H  0.48284121  0.69684030  0.59217287     0.11360
H1652       H  0.47945183  0.74314293  0.48420203     0.11360
C1653       C  0.99868039  0.98755709  0.02580845    -0.14780
C1654       C  0.99931484  0.98321449  0.98600663     0.07370
C1655       C  0.00265092  0.00911979  0.96358017    -0.14780
C1656       C  0.00572939  0.03852240  0.48068838    -0.14780
C1657       C  0.00522975  0.04268421  0.52056504     0.07370
C1658       C  0.00145818  0.01680929  0.54278329    -0.14780
H1659       H  0.99590120  0.96821966  0.04413916     0.11360
H1660       H  0.00321268  0.00663580  0.93296436     0.11360
H1661       H  0.00828191  0.05805394  0.46261276     0.11360
H1662       H  0.00078244  0.01911597  0.57341125     0.11360
C1663       C  0.02510439  0.53955820  0.51885519    -0.14780
C1664       C  0.02455822  0.53966357  0.97864905     0.07370
C1665       C  0.02696108  0.51152432  0.95884938    -0.14780
C1666       C  0.02876960  0.48401300  0.47859728    -0.14780
C1667       C  0.02849781  0.48380232  0.51874012     0.07370
C1668       C  0.02719832  0.51199473  0.53863797    -0.14780
H1669       H  0.02374339  0.56088593  0.53523668     0.11360
H1670       H  0.02690025  0.51071287  0.92811864     0.11360
H1671       H  0.03013778  0.46268498  0.96217850     0.11360
H1672       H  0.02700898  0.51271622  0.56935955     0.11360
C1673       C  0.95632391  0.75515850  0.88597767    -0.14780
C1674       C  0.94006842  0.76147634  0.91939061     0.07370
C1675       C  0.94514063  0.74087537  0.94864297    -0.14780
C1676       C  0.97549033  0.73107166  0.95464077    -0.14780
C1677       C  0.99738631  0.73592585  0.92671464     0.07370
C1678       C  0.98687212  0.74490256  0.89046540    -0.14780
H1679       H  0.94953044  0.76619240  0.85983060     0.11360
H1680       H  0.92965445  0.74046716  0.97224466     0.11360
H1681       H  0.98219822  0.72133221  0.98138179     0.11360
H1682       H  0.00235256  0.74564231  0.86688513     0.11360
C1683       C  0.72797115  0.76286673  0.63170976    -0.14780
C1684       C  0.72728241  0.76056993  0.59152680     0.07370
C1685       C  0.75535684  0.75998430  0.57288405    -0.14780
C1686       C  0.78321713  0.76032574  0.59351950    -0.14780
C1687       C  0.78416725  0.76131447  0.63365387     0.07370
C1688       C  0.75615993  0.76334920  0.65257981    -0.14780
H1689       H  0.70670653  0.76338571  0.64713785     0.11360
H1690       H  0.75591618  0.75835354  0.54220361     0.11360
H1691       H  0.80423567  0.75931952  0.57760868     0.11360
H1692       H  0.75601229  0.76437821  0.68329467     0.11360
C1693       C  0.97018918  0.71680280  0.77337098    -0.14780
C1694       C  0.93783591  0.71534778  0.77100935     0.07370
C1695       C  0.92268886  0.69211011  0.79039318    -0.14780
C1696       C  0.93952526  0.67152212  0.81281216    -0.14780
C1697       C  0.97165971  0.67390289  0.81609057     0.07370
C1698       C  0.98687538  0.69640276  0.79590130    -0.14780
H1699       H  0.98260273  0.73428679  0.75873431     0.11360
H1700       H  0.89780294  0.69014922  0.78876370     0.11360
H1701       H  0.92738164  0.65499451  0.82929838     0.11360
H1702       H  0.01164292  0.69917227  0.79918495     0.11360
C1703       C  0.93442796  0.71016108  0.55386778    -0.14780
C1704       C  0.94390247  0.72665721  0.58710071     0.07370
C1705       C  0.97357124  0.72040608  0.60218337    -0.14780
C1706       C  0.99428931  0.70102381  0.58282628    -0.14780
C1707       C  0.98613711  0.68689481  0.54765151     0.07370
C1708       C  0.95519499  0.69023169  0.53460935    -0.14780
H1709       H  0.91181403  0.71436780  0.54124712     0.11360
H1710       H  0.98150446  0.73215995  0.62805838     0.11360
H1711       H  0.01751259  0.69852460  0.59442545     0.11360
H1712       H  0.94785628  0.67968841  0.50774261     0.11360
C1713       C  0.88955761  0.82789320  0.82010018    -0.14780
C1714       C  0.89276961  0.83556403  0.78191762     0.07370
C1715       C  0.91143082  0.86140097  0.77474634    -0.14780
C1716       C  0.92836528  0.87715635  0.80412312    -0.14780
C1717       C  0.92748114  0.86745550  0.84180030     0.07370
C1718       C  0.90669568  0.84341736  0.84937064    -0.14780
H1719       H  0.87640980  0.80779243  0.82702800     0.11360
H1720       H  0.91516947  0.86772727  0.74570898     0.11360
H1721       H  0.94445800  0.89483409  0.79671217     0.11360
H1722       H  0.90564554  0.83480328  0.87787765     0.11360
C1723       C  0.86341120  0.85212467  0.52468202    -0.14780
C1724       C  0.86166391  0.84667132  0.56346243     0.07370
C1725       C  0.87063213  0.86998923  0.58969675    -0.14780
C1726       C  0.89044856  0.89288818  0.57817635    -0.14780
C1727       C  0.89933404  0.89281923  0.54035406     0.07370
C1728       C  0.88124879  0.87655037  0.51302332    -0.14780
H1729       H  0.85608617  0.83470117  0.50391646     0.11360
H1730       H  0.86862436  0.86655066  0.61986660     0.11360
H1731       H  0.90345154  0.90597902  0.59963979     0.11360
H1732       H  0.88701857  0.87713933  0.48332741     0.11360
C1733       C  0.25059451  0.73643813  0.66486965    -0.14780
C1734       C  0.22319397  0.74187892  0.64407542     0.07370
C1735       C  0.22478621  0.74650261  0.60472344    -0.14780
C1736       C  0.25330346  0.74662985  0.58688507    -0.14780
C1737       C  0.28076373  0.74208790  0.60804811     0.07370
C1738       C  0.27893798  0.73648233  0.64712574    -0.14780
H1739       H  0.25025028  0.73252618  0.69507272     0.11360
H1740       H  0.20404373  0.75063306  0.58779837     0.11360
H1741       H  0.25388441  0.75099657  0.55680769     0.11360
H1742       H  0.29955703  0.73262624  0.66439545     0.11360
C1743       C  0.09638009  0.79690584  0.84359454    -0.14620
C1744       C  0.10554568  0.81190851  0.81109738     0.07370
C1745       C  0.09365901  0.84121045  0.80346910    -0.14780
C1746       C  0.07093303  0.85420882  0.82608272    -0.14780
C1747       C  0.05957207  0.83802019  0.85668469     0.07370
C1748       C  0.07346157  0.80983082  0.86622931    -0.14780
H1749       H  0.10453993  0.77384442  0.84921077     0.11360
H1750       H  0.09982286  0.85270677  0.77784114     0.11360
H1751       H  0.06112669  0.87616881  0.81828629     0.11360
H1752       H  0.06563294  0.79705503  0.89009883     0.11360
C1753       C  0.07664553  0.80846945  0.57169842    -0.14780
C1754       C  0.06534637  0.78098961  0.58700767     0.07370
C1755       C  0.03361964  0.77542941  0.58202193    -0.14780
C1756       C  0.01403559  0.79497713  0.56203292    -0.14780
C1757       C  0.02479747  0.82161984  0.54501042     0.07370
C1758       C  0.05656358  0.82853241  0.55063931    -0.14780
H1759       H  0.10082987  0.81413889  0.57535313     0.11360
H1760       H  0.02342614  0.75578208  0.59455840     0.11360
H1761       H  0.98988558  0.78875541  0.55972743     0.11360
H1762       H  0.06596218  0.84881317  0.53816207     0.11360
C1763       C  0.10343180  0.62207866  0.60701124    -0.14780
C1764       C  0.12265362  0.64804138  0.60869737     0.07370
C1765       C  0.14516810  0.65071704  0.58102639    -0.14780
C1766       C  0.14034450  0.63517982  0.54636722    -0.14780
C1767       C  0.11197150  0.62018209  0.54054331     0.07370
C1768       C  0.09906430  0.60675559  0.57213572    -0.14780
H1769       H  0.08756366  0.61769039  0.62945396     0.11360
H1770       H  0.16212460  0.66893037  0.58283890     0.11360
H1771       H  0.15321293  0.64253705  0.52230463     0.11360
H1772       H  0.07943557  0.59153472  0.56861716     0.11360
C1773       C  0.13137013  0.67860036  0.82359963    -0.14780
C1774       C  0.12062351  0.68222393  0.78608191     0.07370
C1775       C  0.09718350  0.66242270  0.77186577    -0.14780
C1776       C  0.08260835  0.64183486  0.79563379    -0.14780
C1777       C  0.09058065  0.64108895  0.83445805     0.07370
C1778       C  0.11643420  0.65830407  0.84755325    -0.14780
H1779       H  0.14886368  0.69391442  0.83562185     0.11360
H1780       H  0.08802554  0.66491761  0.74324597     0.11360
H1781       H  0.06225162  0.62981942  0.78484370     0.11360
H1782       H  0.12253884  0.65904107  0.87756195     0.11360
C1783       C  0.01538930  0.80633143  0.73733747    -0.14780
C1784       C  0.03021816  0.79308526  0.70595745     0.07370
C1785       C  0.03615604  0.81169918  0.67493206    -0.14780
C1786       C  0.01927967  0.83876031  0.67048094    -0.14780
C1787       C  0.99412509  0.84273321  0.69401485     0.07370
C1788       C  0.99940593  0.83408050  0.73201886    -0.14780
H1789       H  0.01308414  0.79395472  0.76338219     0.11360
H1790       H  0.05137774  0.80406986  0.65300110     0.11360
H1791       H  0.01986271  0.85007201  0.64348076     0.11360
H1792       H  0.98368870  0.84173799  0.75372185     0.11360
loop_ 
_geom_bond_atom_site_label_1 
_geom_bond_atom_site_label_2 
_geom_bond_distance 
_geom_bond_site_symmetry_2 
_ccdc_geom_bond_type 
O1           Ni7   1.930       .  S
O1           C22   1.275       .  A
O2          Ni25   1.882       .  S
O2           C11   1.273       .  A
O3           Ni7   1.873       .  S
O3          Ni25   1.860       .  S
O3          Ni19   1.869       .  S
O3           H26   0.963       .  S
C4           O21   1.265       .  A
C4           O13   1.289       .  A
C4          C848   1.458       .  S
O5          Ni24   1.967       .  S
O5           C11   1.291       .  A
O6          Ni24   1.949       .  S
O6            C8   1.275       .  A
Ni7          O10   1.912       .  S
Ni7          O12   1.918       .  S
C8           O18   1.269       .  A
C8          C878   1.491       .  S
O9          Ni25   1.918       .  S
O9           C15   1.284       .  A
O10          C15   1.284       .  A
C11         C838   1.483       .  S
O12          C14   1.269       .  A
O13         Ni24   1.978       .  S
C14          O20   1.285       .  A
C14         C858   1.523       .  S
C15         C868   1.465       .  S
H16          O17   0.967       .  S
O17         Ni25   1.894       .  S
O17         Ni19   1.870       .  S
O17         Ni24   1.891       .  S
O18         Ni19   1.933       .  S
Ni19         O23   1.860       .  S
Ni19         O21   1.859       .  S
O20         Ni25   1.995       .  S
C22          O23   1.254       .  A
C22         C888   1.457       .  S
O27         Ni33   1.925       .  S
O27          C48   1.273       .  A
O28         Ni51   1.855       .  S
O28          C37   1.264       .  A
O29         Ni33   1.900       .  S
O29         Ni51   1.904       .  S
O29         Ni45   1.919       .  S
O29          H52   0.966       .  S
C30          O47   1.286       .  A
C30          O39   1.291       .  A
C30         C798   1.479       .  S
O31         Ni50   2.000       .  S
O31          C37   1.298       .  A
O32         Ni50   1.979       .  S
O32          C34   1.284       .  A
Ni33         O36   1.910       .  S
Ni33         O38   1.916       .  S
C34          O44   1.258       .  A
C34         C818   1.515       .  S
O35         Ni51   1.911       .  S
O35          C41   1.251       .  A
O36          C41   1.260       .  A
C37         C791   1.493       .  S
O38          C40   1.282       .  A
O39         Ni50   1.947       .  S
C40          O46   1.301       .  A
C40         C808   1.509       .  S
C41         C828   1.455       .  S
H42          O43   0.967       .  S
O43         Ni51   1.846       .  S
O43         Ni45   1.860       .  S
O43         Ni50   1.895       .  S
O44         Ni45   1.898       .  S
Ni45         O49   1.874       .  S
Ni45         O47   1.909       .  S
O46         Ni51   2.014       .  S
C48          O49   1.271       .  A
C48         C891   1.476       .  S
O53         Ni59   1.934       .  S
O53          C74   1.273       .  A
O54         Ni77   1.865       .  S
O54          C63   1.264       .  A
O55         Ni59   1.889       .  S
O55         Ni77   1.861       .  S
O55         Ni71   1.871       .  S
O55          H78   0.966       .  S
C56          O73   1.270       .  A
C56          O65   1.291       .  A
C56         C801   1.460       .  S
O57         Ni76   1.995       .  S
O57          C63   1.296       .  A
O58         Ni76   1.959       .  S
O58          C60   1.279       .  A
Ni59         O64   1.935       .  S
Ni59        O958   1.917       .  S
C60          O70   1.259       .  A
C60         C881   1.485       .  S
O61        Ni973   1.910   1_554  S
O61          C67   1.277       .  A
O62        Ni955   1.917   1_554  S
O62          C67   1.284       .  A
C63         C768   1.493       .  S
O64         C962   1.274       .  A
O65         Ni76   1.972   1_655  S
C66         O960   1.274       .  A
C66         O968   1.281   1_554  A
C66         C811   1.515   1_455  S
C67         C871   1.471       .  S
H68          O69   0.967   1_655  S
O69         Ni77   1.886       .  S
O69         Ni71   1.873       .  S
O69         Ni76   1.895       .  S
O70         Ni71   1.893       .  S
Ni71         O75   1.860       .  S
Ni71         O73   1.871   1_455  S
O72         Ni77   1.970       .  S
O72         C962   1.281       .  A
C74          O75   1.252       .  A
C74         C781   1.459   1_455  S
Ni77        O957   1.910       .  S
O79         Ni85   1.917       .  S
O79         C100   1.271       .  A
O80        Ni103   1.864       .  S
O80          C89   1.269       .  A
O81         Ni85   1.889       .  S
O81        Ni103   1.904       .  S
O81         Ni97   1.920       .  S
O81         H104   0.966       .  S
C82          O99   1.282       .  A
C82          O91   1.291       .  A
C82         C851   1.478       .  S
O83        Ni102   1.989   1_655  S
O83          C89   1.297       .  A
O84        Ni102   1.986   1_655  S
O84          C86   1.285       .  A
Ni85         O90   1.898       .  S
Ni85        O984   1.901       .  S
C86          O96   1.259       .  A
C86         C821   1.516       .  S
O87        Ni999   1.917   1_554  S
O87          C93   1.250       .  A
O88        Ni981   1.901   1_554  S
O88          C93   1.256       .  A
C89         C758   1.491       .  S
O90         C988   1.280   1_655  A
O91        Ni102   1.953       .  S
C92         O986   1.280   1_455  A
C92         O994   1.308       .  A
C92         C861   1.520       .  S
C93         C831   1.456       .  S
H94          O95   0.967       .  S
O95        Ni103   1.850   1_455  S
O95         Ni97   1.862   1_455  S
O95        Ni102   1.888       .  S
O96         Ni97   1.905       .  S
Ni97        O101   1.876       .  S
Ni97         O99   1.899   1_655  S
O98        Ni103   2.036   1_455  S
O98         C988   1.308       .  A
C100        O101   1.271       .  A
C100        C778   1.467       .  S
Ni103       O983   1.917       .  S
O105       Ni111   1.934       .  S
O105        C126   1.276       .  A
O106       Ni129   1.888       .  S
O106        C115   1.275       .  A
O107       Ni111   1.851       .  S
O107       Ni129   1.861       .  S
O107       Ni123   1.874       .  S
O107        H130   0.963       .  S
C108        O125   1.247       .  A
C108        O117   1.292       .  A
C108        C708   1.486       .  S
O109       Ni128   1.977   1_554  S
O109        C115   1.296       .  A
O110      Ni1024   1.935       .  S
O110        C112   1.276       .  A
Ni111       O114   1.913       .  S
Ni111       O116   1.891       .  S
C112       O1018   1.287       .  A
C112        C728   1.517       .  S
O113       Ni129   1.940       .  S
O113        C119   1.289       .  A
O114        C119   1.285       .  A
C115        C788   1.493       .  S
O116        C118   1.259       .  A
O117      Ni1024   2.019       .  S
C118        O124   1.276       .  A
C118        C718   1.477       .  S
C119        C738   1.475       .  S
H120        O121   0.967       .  S
O121       Ni129   1.910       .  S
O121       Ni123   1.860       .  S
O121       Ni128   1.896   1_554  S
O122       Ni123   1.985   1_556  S
O122       C1008   1.287       .  A
Ni123       O127   1.872   1_554  S
Ni123      O1021   1.864   1_554  S
O124       Ni129   1.962       .  S
O125      Ni1019   1.864       .  S
C126        O127   1.259   1_554  A
C126        C748   1.473       .  S
Ni128      O1006   1.935       .  S
Ni128      O1013   2.019       .  S
O131       Ni137   1.866       .  S
O131        C152   1.260       .  A
O132       Ni155   1.872       .  S
O132        C141   1.270       .  A
O133       Ni137   1.888       .  S
O133       Ni155   1.877       .  S
O133       Ni149   1.948       .  S
O133        H156   0.962       .  S
C134        O143   1.286       .  A
C134       O1047   1.257       .  A
C134        C668   1.469       .  S
O135       Ni154   1.972       .  S
O135        C141   1.290       .  A
O136       Ni154   1.937       .  S
O136        C138   1.277   1_554  A
Ni137       O140   1.888       .  S
Ni137       O142   1.897       .  S
C138        O148   1.281   1_556  A
C138       C1587   1.501       .  S
O139       Ni155   1.935       .  S
O139        C145   1.277       .  A
O140        C145   1.271       .  A
C141        C841   1.485       .  S
O142        C144   1.268       .  A
O143      Ni1050   1.988       .  S
C144        O150   1.282       .  A
C144        C678   1.479       .  S
C145        C701   1.466       .  S
H146        O147   0.967       .  S
O147       Ni155   1.907       .  S
O147       Ni149   1.867       .  S
O147       Ni154   1.909       .  S
O148       Ni149   1.967       .  S
Ni149       O153   1.896       .  S
Ni149       O151   1.871       .  S
O150       Ni155   1.959       .  S
O151       C1030   1.257   1_554  A
C152        O153   1.244       .  A
C152        C751   1.460       .  S
Ni154      O1039   1.988   1_554  S
O157       Ni163   1.979       .  S
O157        C178   1.290       .  A
O158       Ni181   1.912       .  S
O158        C167   1.251       .  A
O159       Ni163   1.923       .  S
O159       Ni181   1.890       .  S
O159       Ni175   1.938       .  S
O159        H182   0.966       .  S
C160        O177   1.278       .  A
C160        O169   1.273       .  A
C160        C721   1.478       .  S
O161       Ni180   1.887       .  S
O161        C167   1.257       .  A
O162       Ni180   1.881       .  S
O162        C164   1.263       .  A
Ni163       O166   2.020       .  S
Ni163       O168   1.933       .  S
C164        O174   1.272       .  A
C164        C698   1.466       .  S
O165       Ni181   1.866       .  S
O165        C171   1.250       .  A
O166        C171   1.290       .  A
C167        C658   1.457       .  S
O168        C170   1.276       .  A
O169       Ni180   1.924       .  S
C170        O176   1.283       .  A
C170        C711   1.505       .  S
C171        C688   1.501       .  S
H172        O173   0.963       .  S
O173       Ni181   1.916       .  S
O173       Ni175   1.875       .  S
O173       Ni180   1.919       .  S
O174       Ni175   1.943       .  S
Ni175       O179   1.876       .  S
Ni175       O177   1.939       .  S
O176       Ni181   1.960       .  S
C178        O179   1.267       .  A
C178        C648   1.497       .  S
O183       Ni189   1.905       .  S
O183        C204   1.278       .  A
O184       Ni207   1.854       .  S
O184        C193   1.269       .  A
O185       Ni189   1.865       .  S
O185       Ni207   1.878       .  S
O185       Ni201   1.909       .  S
O185        H208   0.967       .  S
C186        O203   1.290       .  A
C186        O195   1.280       .  A
C186        C671   1.485       .  S
O187       Ni206   1.974       .  S
O187        C193   1.299       .  A
O188       Ni206   2.004       .  S
O188        C190   1.275       .  A
Ni189       O192   1.916       .  S
Ni189       O194   1.905       .  S
C190        O200   1.236       .  A
C190        C731   1.506       .  S
O191       Ni207   1.914       .  S
O191        C197   1.267       .  A
O192        C197   1.270       .  A
C193        C638   1.476       .  S
O194        C196   1.274       .  A
O195       Ni206   1.910       .  S
C196        O202   1.288       .  A
C196        C681   1.487       .  S
C197        C741   1.455       .  S
H198        O199   0.966       .  S
O199       Ni207   1.874       .  S
O199       Ni201   1.852       .  S
O199       Ni206   1.915       .  S
O200       Ni201   1.880       .  S
Ni201       O205   1.864       .  S
Ni201       O203   1.955       .  S
O202       Ni207   1.981       .  S
C204        O205   1.257       .  A
C204        C661   1.466       .  S
O209       Ni215   1.981       .  S
O209        C230   1.291       .  A
O210       Ni233   1.914       .  S
O210        C219   1.251       .  A
O211       Ni215   1.921       .  S
O211       Ni233   1.884       .  S
O211       Ni227   1.935       .  S
O211        H234   0.966       .  S
C212        O229   1.277       .  A
C212        O221   1.273       .  A
C212        C618   1.477       .  S
O213       Ni232   1.887       .  S
O213        C219   1.257       .  A
O214       Ni232   1.880       .  S
O214        C216   1.264       .  A
Ni215       O220   1.937       .  S
Ni215      O1114   2.016       .  S
C216        O226   1.272       .  A
C216        C598   1.466       .  S
O217       Ni233   1.882       .  S
O217       C1119   1.250       .  A
O218      Ni1111   2.016   1_554  S
O218        C223   1.289       .  A
C219        C628   1.459       .  S
O220        C222   1.279       .  A
O221       Ni232   1.925       .  S
C222        O228   1.286       .  A
C222       C1504   1.511       .  S
C223       O1113   1.250       .  A
C223        C588   1.493       .  S
H224        O225   0.963       .  S
O225       Ni233   1.920       .  S
O225       Ni227   1.876       .  S
O225       Ni232   1.919       .  S
O226       Ni227   1.940       .  S
Ni227       O231   1.875       .  S
Ni227       O229   1.934       .  S
O228       Ni233   1.970       .  S
C230        O231   1.266       .  A
C230        C578   1.496       .  S
O235       Ni241   1.902       .  S
O235        C256   1.276       .  A
O236       Ni259   1.868       .  S
O236        C245   1.273       .  A
O237       Ni241   1.867       .  S
O237       Ni259   1.884       .  S
O237       Ni253   1.912       .  S
O237        H260   0.966       .  S
C238        O247   1.279       .  A
C238       O1151   1.289       .  A
C238        C558   1.489       .  S
O239       Ni258   1.969       .  S
O239        C245   1.299       .  A
O240       Ni258   2.010       .  S
O240        C242   1.277       .  A
Ni241       O244   1.910       .  S
Ni241       O246   1.900       .  S
C242        O252   1.235       .  A
C242       C1437   1.507       .  S
O243       Ni259   1.917       .  S
O243        C249   1.269       .  A
O244        C249   1.269       .  A
C245        C528   1.483       .  S
O246        C248   1.273       .  A
O247      Ni1154   1.912   1_554  S
C248        O254   1.288       .  A
C248        C568   1.484       .  S
C249        C548   1.456       .  S
H250        O251   0.966       .  S
O251       Ni259   1.886       .  S
O251       Ni253   1.856       .  S
O251       Ni258   1.916       .  S
O252       Ni253   1.878       .  S
Ni253       O257   1.865       .  S
Ni253       O255   1.956       .  S
O254       Ni259   1.980       .  S
O255       C1134   1.289       .  A
C256        O257   1.255       .  A
C256        C631   1.463       .  S
Ni258      O1143   1.912       .  S
O261       Ni267   1.865       .  S
O261        C282   1.261       .  A
O262       Ni285   1.851       .  S
O262        C271   1.263       .  A
O263       Ni267   1.887       .  S
O263       Ni285   1.869       .  S
O263       Ni279   1.950       .  S
O263        H286   0.963       .  S
C264        O281   1.263       .  A
C264        O273   1.292       .  A
C264        C561   1.474       .  S
O265       Ni284   1.988       .  S
O265        C271   1.295       .  A
O266       Ni284   1.952       .  S
O266        C268   1.278       .  A
Ni267       O270   1.891       .  S
Ni267       O272   1.900       .  S
C268        O278   1.279       .  A
C268        C591   1.509       .  S
O269       Ni285   1.930       .  S
O269        C275   1.274       .  A
O270        C275   1.270       .  A
C271        C641   1.482       .  S
O272        C274   1.267       .  A
O273       Ni284   1.999       .  S
C274        O280   1.279       .  A
C274        C571   1.476       .  S
C275        C601   1.465       .  S
H276        O277   0.967       .  S
O277       Ni285   1.896       .  S
O277       Ni279   1.863       .  S
O277       Ni284   1.899       .  S
O278       Ni279   1.957       .  S
Ni279       O283   1.900       .  S
Ni279       O281   1.873       .  S
O280       Ni285   1.952       .  S
C282        O283   1.248       .  A
C282        C518   1.462       .  S
O287       Ni293   1.940       .  S
O287        C308   1.277       .  A
O288       Ni311   1.880       .  S
O288        C297   1.274       .  A
O289       Ni293   1.852       .  S
O289       Ni311   1.858       .  S
O289       Ni305   1.878       .  S
O289        H312   0.962       .  S
C290        O307   1.246       .  A
C290        O299   1.295       .  A
C290        C611   1.492       .  S
O291       Ni310   1.988       .  S
O291        C297   1.299       .  A
O292       Ni310   1.941       .  S
O292        C294   1.278       .  A
Ni293       O296   1.921       .  S
Ni293       O298   1.889       .  S
C294        O304   1.286       .  A
C294        C538   1.520       .  S
O295       Ni311   1.936       .  S
O295        C301   1.287       .  A
O296        C301   1.286       .  A
C297        C651   1.495       .  S
O298        C300   1.259       .  A
O299       Ni310   2.029       .  S
C300        O306   1.277       .  A
C300        C621   1.475       .  S
C301        C551   1.478       .  S
H302        O303   0.967       .  S
O303       Ni311   1.908       .  S
O303       Ni305   1.853       .  S
O303       Ni310   1.897       .  S
O304       Ni305   1.984       .  S
Ni305       O309   1.854       .  S
Ni305       O307   1.867       .  S
O306       Ni311   1.961       .  S
C308        O309   1.256       .  A
C308        C521   1.467       .  S
O313       Ni319   1.918       .  S
O313        C334   1.270       .  A
O314       Ni337   1.857       .  S
O314        C323   1.263       .  A
O315       Ni319   1.901       .  S
O315       Ni337   1.907       .  S
O315       Ni331   1.910       .  S
O315        H338   0.963       .  S
C316        O333   1.285       .  A
C316        O325   1.292       .  A
C316        C498   1.480       .  S
O317       Ni336   1.991       .  S
O317        C323   1.295       .  A
O318       Ni336   1.977       .  S
O318        C320   1.281       .  A
Ni319       O322   1.888       .  S
Ni319       O324   1.922       .  S
C320        O330   1.257       .  A
C320        C468   1.513       .  S
O321       Ni337   1.920       .  S
O321        C327   1.246       .  A
O322        C327   1.259       .  A
C323        C531   1.487       .  S
O324        C326   1.285       .  A
O325       Ni336   1.954       .  S
C326        O332   1.305       .  A
C326        C488   1.522       .  S
C327        C478   1.469       .  S
H328        O329   0.967       .  S
O329       Ni337   1.852       .  S
O329       Ni331   1.866       .  S
O329       Ni336   1.897       .  S
O330       Ni331   1.898       .  S
Ni331       O335   1.875       .  S
Ni331       O333   1.904       .  S
O332       Ni337   2.024       .  S
C334        O335   1.273       .  A
C334        C508   1.476       .  S
O339       Ni345   1.925       .  S
O339        C360   1.273       .  A
O340       Ni363   1.868       .  S
O340        C349   1.269       .  A
O341       Ni345   1.876       .  S
O341       Ni363   1.854       .  S
O341       Ni357   1.861       .  S
O341        H364   0.963       .  S
C342        O359   1.259       .  A
C342        O351   1.294       .  A
C342        C451   1.467       .  S
O343       Ni362   1.996       .  S
O343        C349   1.298       .  A
O344       Ni362   1.964       .  S
O344        C346   1.280       .  A
Ni345       O348   1.901       .  S
Ni345       O350   1.921       .  S
C346        O356   1.267       .  A
C346        C428   1.497       .  S
O347       Ni363   1.928       .  S
O347        C353   1.286       .  A
O348        C353   1.282       .  A
C349        C581   1.495       .  S
O350        C352   1.269       .  A
O351       Ni362   2.004       .  S
C352        O358   1.277       .  A
C352        C458   1.513       .  S
C353        C438   1.466       .  S
H354        O355   0.966       .  S
O355       Ni363   1.897       .  S
O355       Ni357   1.869       .  S
O355       Ni362   1.894       .  S
O356       Ni357   1.928       .  S
Ni357       O361   1.857       .  S
Ni357       O359   1.855       .  S
O358       Ni363   1.973       .  S
C360        O361   1.250       .  A
C360        C511   1.452       .  S
O365       Ni371   1.919       .  S
O365        C386   1.279       .  A
O366       Ni389   1.886   1_455  S
O366        C375   1.273       .  A
O367       Ni371   1.860       .  S
O367       Ni389   1.872       .  S
O367       Ni383   1.877       .  S
O367        H390   0.966       .  S
C368        O385   1.279       .  A
C368        O377   1.282       .  A
C368        C501   1.472       .  S
O369       Ni388   1.966       .  S
O369        C375   1.293       .  A
O370       Ni388   1.972   1_655  S
O370        C372   1.278       .  A
Ni371       O376   1.929   1_554  S
Ni371      O1270   1.908   1_554  S
C372        O382   1.250       .  A
C372        C431   1.491       .  S
O373      Ni1285   1.911       .  S
O373        C379   1.274       .  A
O374      Ni1267   1.908       .  S
O374        C379   1.282       .  A
C375        C761   1.490       .  S
O376       C1274   1.276   1_655  A
O377       Ni388   1.930       .  S
C378       O1272   1.276   1_455  A
C378       O1280   1.290       .  A
C378        C491   1.525       .  S
C379        C441   1.471       .  S
H380        O381   0.966       .  S
O381       Ni389   1.890   1_455  S
O381       Ni383   1.874   1_455  S
O381       Ni388   1.901       .  S
O382       Ni383   1.891       .  S
Ni383       O387   1.885       .  S
Ni383       O385   1.920   1_655  S
O384       Ni389   1.990   1_456  S
O384       C1274   1.290       .  A
C386        O387   1.261       .  A
C386        C418   1.454       .  S
Ni389      O1269   1.911   1_554  S
O391       Ni397   1.930       .  S
O391        C412   1.272       .  A
O392       Ni415   1.867       .  S
O392        C401   1.270       .  A
O393       Ni397   1.884       .  S
O393       Ni415   1.875       .  S
O393       Ni409   1.880       .  S
O393        H416   0.966       .  S
C394        O411   1.286   1_655  A
C394        O403   1.285       .  A
C394        C448   1.486       .  S
O395       Ni414   1.988       .  S
O395        C401   1.301       .  A
O396       Ni414   1.991       .  S
O396        C398   1.285       .  A
Ni397       O402   1.912   1_554  S
Ni397      O1296   1.903   1_554  S
C398        O408   1.251       .  A
C398        C471   1.510       .  S
O399       Ni415   1.919   1_556  S
O399       C1301   1.273       .  A
O400      Ni1293   1.903       .  S
O400        C405   1.282       .  A
C401        C771   1.492       .  S
O402       C1300   1.272       .  A
O403       Ni414   1.937   1_655  S
C404       O1298   1.272       .  A
C404       O1306   1.285       .  A
C404        C461   1.506   1_455  S
C405       O1295   1.273       .  A
C405        C481   1.468       .  S
H406        O407   0.967       .  S
O407       Ni415   1.883       .  S
O407       Ni409   1.864       .  S
O407       Ni414   1.891       .  S
O408       Ni409   1.883       .  S
Ni409       O413   1.867       .  S
Ni409       O411   1.923       .  S
O410       Ni415   1.976   1_556  S
O410       C1300   1.285       .  A
C412        O413   1.249       .  A
C412        C421   1.440       .  S
C417        C418   1.406   1_455  A
C417        C422   1.393       .  A
C417        H423   1.075   1_455  S
C418        C419   1.395       .  A
C419        C420   1.383   1_655  A
C419        H424   1.083       .  S
C420        C421   1.402       .  A
C420        H425   1.080       .  S
C421        C422   1.394       .  A
C422        H426   1.084       .  S
C427        C428   1.414       .  A
C427        C432   1.403       .  A
C427        H433   1.081       .  S
C428        C429   1.402       .  A
C429        C430   1.411       .  A
C429        H434   1.083       .  S
C430        C431   1.417       .  A
C430        H435   1.083       .  S
C431        C432   1.400       .  A
C432        H436   1.084       .  S
C437        C438   1.410       .  A
C437        C442   1.393       .  A
C437        H443   1.083       .  S
C438        C439   1.404       .  A
C439        C440   1.396       .  A
C439        H444   1.083       .  S
C440        C441   1.408       .  A
C440        H445   1.084       .  S
C441        C442   1.396       .  A
C442        H446   1.083       .  S
C447        C448   1.411       .  A
C447        C452   1.408       .  A
C447        H453   1.083       .  S
C448        C449   1.399       .  A
C449        C450   1.391       .  A
C449        H454   1.079   1_655  S
C450        C451   1.404       .  A
C450        H455   1.085       .  S
C451        C452   1.404       .  A
C452        H456   1.083       .  S
C457        C458   1.402       .  A
C457        C462   1.392       .  A
C457        H463   1.076       .  S
C458        C459   1.418       .  A
C459        C460   1.426       .  A
C459        H464   1.083       .  S
C460        C461   1.412       .  A
C460        H465   1.082       .  S
C461        C462   1.406       .  A
C462        H466   1.083   1_655  S
C467        C468   1.420       .  A
C467        C472   1.412       .  A
C467        H473   1.083       .  S
C468        C469   1.403       .  A
C469        C470   1.415       .  A
C469        H474   1.083       .  S
C470        C471   1.422       .  A
C470        H475   1.083       .  S
C471        C472   1.403       .  A
C472        H476   1.083       .  S
C477        C478   1.401       .  A
C477        C482   1.402       .  A
C477        H483   1.083       .  S
C478        C479   1.410       .  A
C479        C480   1.396       .  A
C479        H484   1.074       .  S
C480        C481   1.395       .  A
C480        H485   1.083       .  S
C481        C482   1.410       .  A
C482        H486   1.083       .  S
C487        C488   1.408       .  A
C487        C492   1.409       .  A
C487        H493   1.083       .  S
C488        C489   1.416       .  A
C489        C490   1.429       .  A
C489        H494   1.082       .  S
C490        C491   1.416       .  A
C490        H495   1.082       .  S
C491        C492   1.409       .  A
C492        H496   1.079       .  S
C497        C498   1.408       .  A
C497        C502   1.399       .  A
C497        H503   1.083       .  S
C498        C499   1.405       .  A
C499        C500   1.395       .  A
C499        H504   1.082       .  S
C500        C501   1.404       .  A
C500        H505   1.084       .  S
C501        C502   1.402       .  A
C502        H506   1.083       .  S
C507        C508   1.394   1_655  A
C507        C512   1.394       .  A
C507        H513   1.083       .  S
C508        C509   1.414       .  A
C509        C510   1.404       .  A
C509        H514   1.082       .  S
C510        C511   1.405   1_455  A
C510        H515   1.082       .  S
C511        C512   1.405       .  A
C512        H516   1.072       .  S
C517        C518   1.416       .  A
C517        C522   1.396       .  A
C517        H523   1.073       .  S
C518        C519   1.409       .  A
C519        C520   1.395       .  A
C519        H524   1.084       .  S
C520        C521   1.396       .  A
C520        H525   1.084       .  S
C521        C522   1.396       .  A
C522        H526   1.083       .  S
C527        C528   1.398       .  A
C527        C532   1.400       .  A
C527        H533   1.083       .  S
C528        C529   1.414       .  A
C529        C530   1.400       .  A
C529        H534   1.083       .  S
C530        C531   1.399       .  A
C530        H535   1.083       .  S
C531        C532   1.415       .  A
C532        H536   1.083       .  S
C537        C538   1.410       .  A
C537        C542   1.417       .  A
C537        H543   1.083       .  S
C538        C539   1.413       .  A
C539        C540   1.416       .  A
C539        H544   1.083       .  S
C540        C541   1.411       .  A
C540        H545   1.082       .  S
C541       C1138   1.507       .  S
C541        C542   1.414       .  A
C542        H546   1.083       .  S
C547        C548   1.403       .  A
C547        C552   1.398       .  A
C547        H553   1.084       .  S
C548        C549   1.402       .  A
C549        C550   1.396       .  A
C549        H554   1.084       .  S
C550        C551   1.406       .  A
C550        H555   1.083       .  S
C551        C552   1.405       .  A
C552        H556   1.083       .  S
C557        C558   1.407       .  A
C557        C562   1.405       .  A
C557        H563   1.083       .  S
C558        C559   1.408       .  A
C559        C560   1.400       .  A
C559        H564   1.083       .  S
C560        C561   1.403       .  A
C560        H565   1.083       .  S
C561        C562   1.406       .  A
C562        H566   1.083       .  S
C567        C568   1.406       .  A
C567        C572   1.407       .  A
C567        H573   1.083       .  S
C568        C569   1.407       .  A
C569        C570   1.398       .  A
C569        H574   1.084       .  S
C570        C571   1.403       .  A
C570        H575   1.084       .  S
C571        C572   1.408       .  A
C572        H576   1.083       .  S
C577        C578   1.400       .  A
C577        C582   1.403       .  A
C577        H583   1.083       .  S
C578        C579   1.418       .  A
C579        C580   1.403       .  A
C579        H584   1.083       .  S
C580        C581   1.400       .  A
C580        H585   1.083       .  S
C581        C582   1.417       .  A
C582        H586   1.083       .  S
C587        C588   1.399       .  A
C587        C592   1.394       .  A
C587        H593   1.080       .  S
C588        C589   1.414       .  A
C589        C590   1.425       .  A
C589        H594   1.083       .  S
C590        C591   1.415       .  A
C590        H595   1.082       .  S
C591        C592   1.401       .  A
C592        H596   1.079       .  S
C597        C598   1.409       .  A
C597        C602   1.395       .  A
C597        H603   1.084       .  S
C598        C599   1.398       .  A
C599        C600   1.394       .  A
C599        H604   1.084       .  S
C600        C601   1.408       .  A
C600        H605   1.084       .  S
C601        C602   1.399       .  A
C602        H606   1.084       .  S
C607        C608   1.408       .  A
C607        C612   1.417       .  A
C607        H613   1.083       .  S
C608       C1118   1.511       .  S
C608        C609   1.403       .  A
C609        C610   1.405       .  A
C609       H1510   1.068       .  S
C610        C611   1.400       .  A
C610        H615   1.082       .  S
C611        C612   1.418       .  A
C612        H616   1.083       .  S
H614       C1505   1.068       .  S
C617        C618   1.401       .  A
C617        C622   1.404       .  A
C617        H623   1.083       .  S
C618        C619   1.407       .  A
C619        C620   1.403       .  A
C619        H624   1.084       .  S
C620        C621   1.403       .  A
C620        H625   1.083       .  S
C621        C622   1.409       .  A
C622        H626   1.084       .  S
C627        C628   1.405       .  A
C627        C632   1.399       .  A
C627        H633   1.084       .  S
C628        C629   1.410       .  A
C629        C630   1.386       .  A
C629        H634   1.074       .  S
C630        C631   1.393       .  A
C630        H635   1.084       .  S
C631        C632   1.410       .  A
C632        H636   1.082       .  S
C637        C638   1.395       .  A
C637        C642   1.398   1_565  A
C637        H643   1.083       .  S
C638        C639   1.414       .  A
C639        C640   1.395       .  A
C639        H644   1.083       .  S
C640        C641   1.397   1_565  A
C640        H645   1.083       .  S
C641        C642   1.417       .  A
C642        H646   1.083       .  S
C647        C648   1.416       .  A
C647        C652   1.400       .  A
C647        H653   1.083       .  S
C648        C649   1.402       .  A
C649        C650   1.405       .  A
C649        H654   1.083       .  S
C650        C651   1.416       .  A
C650        H655   1.083       .  S
C651        C652   1.400       .  A
C652        H656   1.083       .  S
C657        C658   1.413       .  A
C657        C662   1.390       .  A
C657        H663   1.075       .  S
C658        C659   1.406       .  A
C659        C660   1.399       .  A
C659        H664   1.083       .  S
C660        C661   1.408       .  A
C660        H665   1.081       .  S
C661        C662   1.393       .  A
C662        H666   1.084       .  S
C667        C668   1.405       .  A
C667        C672   1.403       .  A
C667        H673   1.084       .  S
C668        C669   1.402       .  A
C669        C670   1.398       .  A
C669        H674   1.084       .  S
C670        C671   1.408       .  A
C670        H675   1.083       .  S
C671        C672   1.407       .  A
C672        H676   1.083       .  S
C677        C678   1.408       .  A
C677        C682   1.408       .  A
C677        H683   1.083       .  S
C678        C679   1.404       .  A
C679        C680   1.399       .  A
C679        H684   1.084       .  S
C680        C681   1.407       .  A
C680        H685   1.084       .  S
C681        C682   1.406       .  A
C682        H686   1.083       .  S
C687        C688   1.417       .  A
C687        C692   1.407       .  A
C687        H693   1.083       .  S
C688        C689   1.403       .  A
C689        C690   1.413       .  A
C689        H694   1.083       .  S
C690        C691   1.411       .  A
C690        H695   1.075       .  S
C691       C1034   1.501       .  S
C691        C692   1.400       .  A
C692        H696   1.083       .  S
C697        C698   1.398       .  A
C697        C702   1.396       .  A
C697        H703   1.084       .  S
C698        C699   1.408       .  A
C699        C700   1.395       .  A
C699        H704   1.084       .  S
C700        C701   1.398       .  A
C700        H705   1.084       .  S
C701        C702   1.409       .  A
C702        H706   1.084       .  S
C707        C708   1.417       .  A
C707        C712   1.415       .  A
C707        H713   1.083       .  S
C708        C709   1.397       .  A
C709        C710   1.402       .  A
C709        H714   1.082       .  S
C710        C711   1.402       .  A
C710        H715   1.066       .  S
C711        C712   1.406       .  A
C712        H716   1.083       .  S
C717        C718   1.403       .  A
C717        C722   1.404       .  A
C717        H723   1.083       .  S
C718        C719   1.409       .  A
C719        C720   1.404       .  A
C719        H724   1.084       .  S
C720        C721   1.402       .  A
C720        H725   1.083       .  S
C721        C722   1.407       .  A
C722        H726   1.083       .  S
C727        C728   1.413       .  A
C727        C732   1.416       .  A
C727        H733   1.083       .  S
C728        C729   1.409       .  A
C729        C730   1.415       .  A
C729        H734   1.083       .  S
C730        C731   1.413       .  A
C730        H735   1.083       .  S
C731        C732   1.411       .  A
C732        H736   1.082       .  S
C737        C738   1.406       .  A
C737        C742   1.394       .  A
C737        H743   1.083       .  S
C738        C739   1.404       .  A
C739        C740   1.398       .  A
C739        H744   1.083       .  S
C740        C741   1.404       .  A
C740        H745   1.084       .  S
C741        C742   1.401       .  A
C742        H746   1.084       .  S
C747        C748   1.399   1_556  A
C747        C752   1.397   1_556  A
C747        H753   1.084       .  S
C748        C749   1.401       .  A
C749        C750   1.398       .  A
C749        H754   1.083       .  S
C750        C751   1.413       .  A
C750        H755   1.077       .  S
C751        C752   1.415       .  A
C752        H756   1.083   1_554  S
C757        C758   1.412       .  A
C757       C1658   1.397   1_665  A
C757        H763   1.083       .  S
C758        C759   1.403   1_665  A
C759       C1656   1.406       .  A
C759        H764   1.083       .  S
C760        C761   1.414   1_556  A
C760       C1655   1.406       .  A
C760        H765   1.083       .  S
C761        C762   1.400       .  A
C762       C1653   1.397   1_445  A
C762        H766   1.083       .  S
C767        C772   1.404       .  A
C767       C1664   1.417   1_554  A
C767        H773   1.083       .  S
C768        C769   1.399       .  A
C768       C1663   1.417       .  A
C769       C1666   1.401       .  A
C769        H774   1.083       .  S
C770        C771   1.416   1_556  A
C770       C1665   1.401       .  A
C770       H1671   1.083       .  S
C771        C772   1.399       .  A
C772        H776   1.083       .  S
H775       C1666   1.083       .  S
C777        C778   1.409       .  A
C777        C782   1.402       .  A
C777        H783   1.083       .  S
C778        C779   1.396       .  A
C779        C780   1.394       .  A
C779        H784   1.083       .  S
C780        C781   1.406       .  A
C780        H785   1.076       .  S
C781        C782   1.409       .  A
C782        H786   1.083   1_655  S
C787        C788   1.417       .  A
C787        C792   1.410       .  A
C787        H793   1.083       .  S
C788        C789   1.398       .  A
C789        C790   1.393       .  A
C789        H794   1.083       .  S
C790        C791   1.414       .  A
C790        H795   1.083       .  S
C791        C792   1.402       .  A
C792        H796   1.083       .  S
C797        C798   1.405       .  A
C797        C802   1.393       .  A
C797        H803   1.083       .  S
C798        C799   1.409       .  A
C799        C800   1.400       .  A
C799        H804   1.083       .  S
C800        C801   1.399       .  A
C800        H805   1.083       .  S
C801        C802   1.403       .  A
C802        H806   1.084   1_655  S
C807        C808   1.411       .  A
C807        C812   1.421       .  A
C807        H813   1.083       .  S
C808        C809   1.407       .  A
C809        C810   1.407       .  A
C809        H814   1.083       .  S
C810        C811   1.408       .  A
C810        H815   1.083   1_655  S
C811        C812   1.415       .  A
C812        H816   1.083       .  S
C817        C818   1.406       .  A
C817        C822   1.415       .  A
C817        H823   1.083       .  S
C818        C819   1.420       .  A
C819        C820   1.418       .  A
C819        H824   1.083       .  S
C820        C821   1.405       .  A
C820        H825   1.083       .  S
C821        C822   1.419       .  A
C822        H826   1.084       .  S
C827        C828   1.397       .  A
C827        C832   1.394       .  A
C827        H833   1.083       .  S
C828        C829   1.405       .  A
C829        C830   1.394       .  A
C829        H834   1.084       .  S
C830        C831   1.398       .  A
C830        H835   1.083       .  S
C831        C832   1.406       .  A
C832        H836   1.084   1_554  S
C837        C838   1.402       .  A
C837        C842   1.394       .  A
C837        H843   1.083       .  S
C838        C839   1.410       .  A
C839        C840   1.402       .  A
C839        H844   1.083       .  S
C840        C841   1.404       .  A
C840        H845   1.083       .  S
C841        C842   1.409       .  A
C842        H846   1.083       .  S
C847        C848   1.400       .  A
C847        C852   1.398       .  A
C847        H853   1.084       .  S
C848        C849   1.403       .  A
C849        C850   1.393       .  A
C849        H854   1.084       .  S
C850        C851   1.405       .  A
C850        H855   1.083       .  S
C851        C852   1.408       .  A
C852        H856   1.083       .  S
C857        C858   1.419       .  A
C857        C862   1.436       .  A
C857        H863   1.082       .  S
C858        C859   1.404       .  A
C859        C860   1.390       .  A
C859        H864   1.075       .  S
C860        C861   1.406       .  A
C860        H865   1.083   1_455  S
C861        C862   1.419       .  A
C862        H866   1.082       .  S
C867        C868   1.406       .  A
C867        C872   1.393       .  A
C867        H873   1.083       .  S
C868        C869   1.406       .  A
C869        C870   1.393       .  A
C869        H874   1.083       .  S
C870        C871   1.403       .  A
C870        H875   1.083       .  S
C871        C872   1.401       .  A
C872        H876   1.084       .  S
C877        C878   1.403       .  A
C877        C882   1.409       .  A
C877        H883   1.083       .  S
C878        C879   1.410       .  A
C879        C880   1.406       .  A
C879        H884   1.082       .  S
C880        C881   1.404       .  A
C880        H885   1.084       .  S
C881        C882   1.412       .  A
C882        H886   1.083       .  S
C887        C888   1.404       .  A
C887        C892   1.404   1_455  A
C887        H893   1.083       .  S
C888        C889   1.407       .  A
C889        C890   1.393       .  A
C889        H894   1.075       .  S
C890        C891   1.395   1_455  A
C890        H895   1.083       .  S
C891        C892   1.413       .  A
C892        H896   1.083       .  S
O897       Ni903   1.930       .  S
O897        C918   1.275       .  A
O898       Ni921   1.882       .  S
O898        C907   1.273       .  A
O899       Ni903   1.873       .  S
O899       Ni921   1.860       .  S
O899       Ni915   1.869       .  S
O899        H922   0.963       .  S
C900        O917   1.265       .  A
C900        O909   1.289       .  A
C900       C1744   1.458       .  S
O901       Ni920   1.967       .  S
O901        C907   1.291       .  A
O902       Ni920   1.949       .  S
O902        C904   1.275       .  A
Ni903       O906   1.912       .  S
Ni903       O908   1.918       .  S
C904        O914   1.269       .  A
C904       C1774   1.491       .  S
O905       Ni921   1.918       .  S
O905        C911   1.284       .  A
O906        C911   1.284       .  A
C907       C1734   1.483       .  S
O908        C910   1.269       .  A
O909       Ni920   1.978       .  S
C910        O916   1.285       .  A
C910       C1754   1.523       .  S
C911       C1764   1.465       .  S
H912        O913   0.967       .  S
O913       Ni921   1.894       .  S
O913       Ni915   1.870       .  S
O913       Ni920   1.891       .  S
O914       Ni915   1.933       .  S
Ni915       O919   1.860       .  S
Ni915       O917   1.859       .  S
O916       Ni921   1.995       .  S
C918        O919   1.254       .  A
C918       C1784   1.457       .  S
O923       Ni929   1.925       .  S
O923        C944   1.273       .  A
O924       Ni947   1.855       .  S
O924        C933   1.264       .  A
O925       Ni929   1.900       .  S
O925       Ni947   1.904       .  S
O925       Ni941   1.919       .  S
O925        H948   0.966       .  S
C926        O943   1.286       .  A
C926        O935   1.291       .  A
C926       C1694   1.479       .  S
O927       Ni946   2.000       .  S
O927        C933   1.298       .  A
O928       Ni946   1.979       .  S
O928        C930   1.284       .  A
Ni929       O932   1.910       .  S
Ni929       O934   1.916       .  S
C930        O940   1.258       .  A
C930       C1714   1.515       .  S
O931       Ni947   1.911       .  S
O931        C937   1.251       .  A
O932        C937   1.260       .  A
C933       C1687   1.493       .  S
O934        C936   1.282       .  A
O935       Ni946   1.947       .  S
C936        O942   1.301       .  A
C936       C1704   1.509       .  S
C937       C1724   1.455       .  S
H938        O939   0.967       .  S
O939       Ni947   1.846       .  S
O939       Ni941   1.860       .  S
O939       Ni946   1.895       .  S
O940       Ni941   1.898       .  S
Ni941       O945   1.874       .  S
Ni941       O943   1.909       .  S
O942       Ni947   2.014       .  S
C944        O945   1.271       .  A
C944       C1787   1.476       .  S
O949       Ni955   1.934       .  S
O949        C970   1.273       .  A
O950       Ni973   1.865       .  S
O950        C959   1.264       .  A
O951       Ni955   1.889       .  S
O951       Ni973   1.861       .  S
O951       Ni967   1.871       .  S
O951        H974   0.966       .  S
C952        O969   1.270       .  A
C952        O961   1.291       .  A
C952       C1697   1.460       .  S
O953       Ni972   1.995       .  S
O953        C959   1.296       .  A
O954       Ni972   1.959       .  S
O954        C956   1.279       .  A
Ni955       O960   1.935   1_556  S
C956        O966   1.259       .  A
C956       C1777   1.485       .  S
O957        C963   1.277       .  A
O958        C963   1.284       .  A
C959       C1664   1.493       .  S
O961       Ni972   1.972   1_655  S
C962       C1707   1.515   1_455  S
C963       C1767   1.471       .  S
H964        O965   0.967   1_655  S
O965       Ni973   1.886       .  S
O965       Ni967   1.873       .  S
O965       Ni972   1.895       .  S
O966       Ni967   1.893       .  S
Ni967       O971   1.860       .  S
Ni967       O969   1.871   1_455  S
O968       Ni973   1.970       .  S
C970        O971   1.252       .  A
C970       C1677   1.459   1_455  S
O975       Ni981   1.916       .  S
O975        C996   1.271       .  A
O976       Ni999   1.864       .  S
O976        C985   1.269       .  A
O977       Ni981   1.889       .  S
O977       Ni999   1.904       .  S
O977       Ni993   1.920       .  S
O977       H1000   0.966       .  S
C978        O995   1.282       .  A
C978        O987   1.291       .  A
C978       C1747   1.478       .  S
O979       Ni998   1.989   1_655  S
O979        C985   1.297       .  A
O980       Ni998   1.985   1_655  S
O980        C982   1.285       .  A
Ni981       O986   1.898   1_556  S
C982        O992   1.259       .  A
C982       C1717   1.516       .  S
O983        C989   1.250       .  A
O984        C989   1.256       .  A
C985       C1654   1.491       .  S
O987       Ni998   1.953       .  S
C988       C1757   1.520       .  S
C989       C1727   1.456       .  S
H990        O991   0.967       .  S
O991       Ni999   1.850   1_455  S
O991       Ni993   1.862   1_455  S
O991       Ni998   1.888       .  S
O992       Ni993   1.905       .  S
Ni993       O997   1.876       .  S
Ni993       O995   1.899   1_655  S
O994       Ni999   2.036   1_454  S
C996        O997   1.271       .  A
C996       C1674   1.467       .  S
O1001     Ni1007   1.934       .  S
O1001      C1022   1.276       .  A
O1002     Ni1025   1.888       .  S
O1002      C1011   1.275       .  A
O1003     Ni1007   1.851       .  S
O1003     Ni1025   1.861       .  S
O1003     Ni1019   1.874       .  S
O1003      H1026   0.963       .  S
C1004      O1021   1.247       .  A
C1004      O1013   1.292       .  A
C1004      C1604   1.486       .  S
O1005     Ni1024   1.977       .  S
O1005      C1011   1.296       .  A
O1006      C1008   1.276       .  A
Ni1007     O1010   1.913       .  S
Ni1007     O1012   1.891       .  S
C1008      C1624   1.517       .  S
O1009     Ni1025   1.940       .  S
O1009      C1015   1.289       .  A
O1010      C1015   1.285       .  A
C1011      C1684   1.493       .  S
O1012      C1014   1.259       .  A
C1014      O1020   1.276       .  A
C1014      C1614   1.477       .  S
C1015      C1634   1.475       .  S
H1016      O1017   0.967       .  S
O1017     Ni1025   1.910       .  S
O1017     Ni1019   1.860       .  S
O1017     Ni1024   1.896       .  S
O1018     Ni1019   1.985       .  S
Ni1019     O1023   1.872       .  S
O1020     Ni1025   1.962       .  S
C1022      O1023   1.259       .  A
C1022      C1644   1.473       .  S
O1027     Ni1033   1.866       .  S
O1027      C1048   1.260       .  A
O1028     Ni1051   1.872       .  S
O1028      C1037   1.270       .  A
O1029     Ni1033   1.888       .  S
O1029     Ni1051   1.877       .  S
O1029     Ni1045   1.948       .  S
O1029      H1052   0.962       .  S
C1030      O1039   1.286       .  A
C1030      C1564   1.469       .  S
O1031     Ni1050   1.972       .  S
O1031      C1037   1.290       .  A
O1032     Ni1050   1.937       .  S
O1032      C1034   1.277       .  A
Ni1033     O1036   1.888       .  S
Ni1033     O1038   1.897       .  S
C1034      O1044   1.281       .  A
O1035     Ni1051   1.935       .  S
O1035      C1041   1.277       .  A
O1036      C1041   1.271       .  A
C1037      C1737   1.485       .  S
O1038      C1040   1.268       .  A
C1040      O1046   1.282       .  A
C1040      C1574   1.479       .  S
C1041      C1597   1.466       .  S
H1042      O1043   0.967       .  S
O1043     Ni1051   1.907       .  S
O1043     Ni1045   1.867       .  S
O1043     Ni1050   1.909       .  S
O1044     Ni1045   1.967       .  S
Ni1045     O1049   1.896       .  S
Ni1045     O1047   1.871       .  S
O1046     Ni1051   1.959       .  S
C1048      O1049   1.244       .  A
C1048      C1647   1.460       .  S
O1053     Ni1059   1.979       .  S
O1053      C1074   1.290       .  A
O1054     Ni1077   1.912       .  S
O1054      C1063   1.251       .  A
O1055     Ni1059   1.923       .  S
O1055     Ni1077   1.890       .  S
O1055     Ni1071   1.938       .  S
O1055      H1078   0.966       .  S
C1056      O1073   1.278       .  A
C1056      O1065   1.273       .  A
C1056      C1617   1.478       .  S
O1057     Ni1076   1.887       .  S
O1057      C1063   1.257       .  A
O1058     Ni1076   1.881       .  S
O1058      C1060   1.263       .  A
Ni1059     O1062   2.020       .  S
Ni1059     O1064   1.933       .  S
C1060      O1070   1.272       .  A
C1060      C1594   1.466       .  S
O1061     Ni1077   1.866       .  S
O1061      C1067   1.250       .  A
O1062      C1067   1.290       .  A
C1063      C1554   1.457       .  S
O1064      C1066   1.276       .  A
O1065     Ni1076   1.924       .  S
C1066      O1072   1.283       .  A
C1066      C1607   1.505       .  S
C1067      C1584   1.501       .  S
H1068      O1069   0.963       .  S
O1069     Ni1077   1.916       .  S
O1069     Ni1071   1.875       .  S
O1069     Ni1076   1.919       .  S
O1070     Ni1071   1.943       .  S
Ni1071     O1075   1.876       .  S
Ni1071     O1073   1.939       .  S
O1072     Ni1077   1.960       .  S
C1074      O1075   1.267       .  A
C1074      C1544   1.497       .  S
O1079     Ni1085   1.905       .  S
O1079      C1100   1.278       .  A
O1080     Ni1103   1.854       .  S
O1080      C1089   1.269       .  A
O1081     Ni1085   1.865       .  S
O1081     Ni1103   1.878       .  S
O1081     Ni1097   1.909       .  S
O1081      H1104   0.967       .  S
C1082      O1099   1.290       .  A
C1082      O1091   1.280       .  A
C1082      C1567   1.485       .  S
O1083     Ni1102   1.974       .  S
O1083      C1089   1.299       .  A
O1084     Ni1102   2.004       .  S
O1084      C1086   1.275       .  A
Ni1085     O1088   1.916       .  S
Ni1085     O1090   1.905       .  S
C1086      O1096   1.236       .  A
C1086      C1627   1.506       .  S
O1087     Ni1103   1.914       .  S
O1087      C1093   1.267       .  A
O1088      C1093   1.270       .  A
C1089      C1534   1.476       .  S
O1090      C1092   1.274       .  A
O1091     Ni1102   1.910       .  S
C1092      O1098   1.288       .  A
C1092      C1577   1.487       .  S
C1093      C1637   1.455       .  S
H1094      O1095   0.966       .  S
O1095     Ni1103   1.874       .  S
O1095     Ni1097   1.852       .  S
O1095     Ni1102   1.915       .  S
O1096     Ni1097   1.880       .  S
Ni1097     O1101   1.864       .  S
Ni1097     O1099   1.955       .  S
O1098     Ni1103   1.981       .  S
C1100      O1101   1.257       .  A
C1100      C1557   1.466       .  S
O1105     Ni1111   1.981       .  S
O1105      C1126   1.291       .  A
O1106     Ni1129   1.914       .  S
O1106      C1115   1.251       .  A
O1107     Ni1111   1.921       .  S
O1107     Ni1129   1.884       .  S
O1107     Ni1123   1.935       .  S
O1107      H1130   0.966       .  S
C1108      O1125   1.277       .  A
C1108      O1117   1.273       .  A
C1108      C1514   1.477       .  S
O1109     Ni1128   1.887       .  S
O1109      C1115   1.257       .  A
O1110     Ni1128   1.880       .  S
O1110      C1112   1.264       .  A
Ni1111     O1116   1.937   1_556  S
C1112      O1122   1.272       .  A
C1112      C1494   1.466       .  S
O1113     Ni1129   1.882   1_554  S
O1114      C1119   1.289       .  A
C1115      C1524   1.459       .  S
O1116      C1118   1.279       .  A
O1117     Ni1128   1.925       .  S
C1118      O1124   1.286       .  A
C1119      C1484   1.493       .  S
H1120      O1121   0.963       .  S
O1121     Ni1129   1.920       .  S
O1121     Ni1123   1.876       .  S
O1121     Ni1128   1.919       .  S
O1122     Ni1123   1.940       .  S
Ni1123     O1127   1.875       .  S
Ni1123     O1125   1.934       .  S
O1124     Ni1129   1.970   1_554  S
C1126      O1127   1.266       .  A
C1126      C1474   1.496       .  S
O1131     Ni1137   1.902       .  S
O1131      C1152   1.276       .  A
O1132     Ni1155   1.868       .  S
O1132      C1141   1.273       .  A
O1133     Ni1137   1.867       .  S
O1133     Ni1155   1.884       .  S
O1133     Ni1149   1.912       .  S
O1133      H1156   0.966       .  S
C1134      O1143   1.279       .  A
C1134      C1454   1.489       .  S
O1135     Ni1154   1.969       .  S
O1135      C1141   1.299       .  A
O1136     Ni1154   2.010   1_554  S
O1136      C1138   1.277       .  A
Ni1137     O1140   1.910       .  S
Ni1137     O1142   1.900       .  S
C1138      O1148   1.235   1_554  A
O1139     Ni1155   1.917       .  S
O1139      C1145   1.269       .  A
O1140      C1145   1.269       .  A
C1141      C1424   1.483       .  S
O1142      C1144   1.273       .  A
C1144      O1150   1.288       .  A
C1144      C1464   1.484       .  S
C1145      C1444   1.456       .  S
H1146      O1147   0.966       .  S
O1147     Ni1155   1.886       .  S
O1147     Ni1149   1.856       .  S
O1147     Ni1154   1.916       .  S
O1148     Ni1149   1.878       .  S
Ni1149     O1153   1.865       .  S
Ni1149     O1151   1.956   1_556  S
O1150     Ni1155   1.980       .  S
C1152      O1153   1.255       .  A
C1152      C1527   1.463       .  S
O1157     Ni1163   1.865       .  S
O1157      C1178   1.261       .  A
O1158     Ni1181   1.851       .  S
O1158      C1167   1.263       .  A
O1159     Ni1163   1.887       .  S
O1159     Ni1181   1.869       .  S
O1159     Ni1175   1.950       .  S
O1159      H1182   0.963       .  S
C1160      O1177   1.263       .  A
C1160      O1169   1.292       .  A
C1160      C1457   1.474       .  S
O1161     Ni1180   1.988       .  S
O1161      C1167   1.295       .  A
O1162     Ni1180   1.952       .  S
O1162      C1164   1.278       .  A
Ni1163     O1166   1.891       .  S
Ni1163     O1168   1.900       .  S
C1164      O1174   1.279       .  A
C1164      C1487   1.509       .  S
O1165     Ni1181   1.930       .  S
O1165      C1171   1.274       .  A
O1166      C1171   1.270       .  A
C1167      C1537   1.482       .  S
O1168      C1170   1.267       .  A
O1169     Ni1180   1.999       .  S
C1170      O1176   1.279       .  A
C1170      C1467   1.476       .  S
C1171      C1497   1.465       .  S
H1172      O1173   0.967       .  S
O1173     Ni1181   1.896       .  S
O1173     Ni1175   1.863       .  S
O1173     Ni1180   1.899       .  S
O1174     Ni1175   1.957       .  S
Ni1175     O1179   1.900       .  S
Ni1175     O1177   1.873       .  S
O1176     Ni1181   1.952       .  S
C1178      O1179   1.248       .  A
C1178      C1414   1.462       .  S
O1183     Ni1189   1.940       .  S
O1183      C1204   1.277       .  A
O1184     Ni1207   1.880       .  S
O1184      C1193   1.274       .  A
O1185     Ni1189   1.852       .  S
O1185     Ni1207   1.858       .  S
O1185     Ni1201   1.878       .  S
O1185      H1208   0.962       .  S
C1186      O1203   1.246       .  A
C1186      O1195   1.295       .  A
C1186      C1507   1.492       .  S
O1187     Ni1206   1.988       .  S
O1187      C1193   1.299       .  A
O1188     Ni1206   1.941       .  S
O1188      C1190   1.278       .  A
Ni1189     O1192   1.921       .  S
Ni1189     O1194   1.889       .  S
C1190      O1200   1.286       .  A
C1190      C1434   1.520       .  S
O1191     Ni1207   1.936       .  S
O1191      C1197   1.287       .  A
O1192      C1197   1.286       .  A
C1193      C1547   1.495       .  S
O1194      C1196   1.259       .  A
O1195     Ni1206   2.029       .  S
C1196      O1202   1.277       .  A
C1196      C1517   1.475       .  S
C1197      C1447   1.478       .  S
H1198      O1199   0.967       .  S
O1199     Ni1207   1.908       .  S
O1199     Ni1201   1.853       .  S
O1199     Ni1206   1.897       .  S
O1200     Ni1201   1.984       .  S
Ni1201     O1205   1.854       .  S
Ni1201     O1203   1.867       .  S
O1202     Ni1207   1.961       .  S
C1204      O1205   1.256       .  A
C1204      C1417   1.467       .  S
O1209     Ni1215   1.918       .  S
O1209      C1230   1.270       .  A
O1210     Ni1233   1.857       .  S
O1210      C1219   1.263       .  A
O1211     Ni1215   1.901       .  S
O1211     Ni1233   1.907       .  S
O1211     Ni1227   1.910       .  S
O1211      H1234   0.963       .  S
C1212      O1229   1.285       .  A
C1212      O1221   1.292       .  A
C1212      C1394   1.480       .  S
O1213     Ni1232   1.991       .  S
O1213      C1219   1.295       .  A
O1214     Ni1232   1.977       .  S
O1214      C1216   1.281       .  A
Ni1215     O1218   1.888       .  S
Ni1215     O1220   1.922       .  S
C1216      O1226   1.257       .  A
C1216      C1364   1.513       .  S
O1217     Ni1233   1.920       .  S
O1217      C1223   1.246       .  A
O1218      C1223   1.259       .  A
C1219      C1427   1.487       .  S
O1220      C1222   1.285       .  A
O1221     Ni1232   1.954       .  S
C1222      O1228   1.305       .  A
C1222      C1384   1.522       .  S
C1223      C1374   1.469       .  S
H1224      O1225   0.967       .  S
O1225     Ni1233   1.852       .  S
O1225     Ni1227   1.866       .  S
O1225     Ni1232   1.897       .  S
O1226     Ni1227   1.898       .  S
Ni1227     O1231   1.875       .  S
Ni1227     O1229   1.904       .  S
O1228     Ni1233   2.024       .  S
C1230      O1231   1.273       .  A
C1230      C1404   1.476       .  S
O1235     Ni1241   1.925       .  S
O1235      C1256   1.273       .  A
O1236     Ni1259   1.868       .  S
O1236      C1245   1.269       .  A
O1237     Ni1241   1.876       .  S
O1237     Ni1259   1.854       .  S
O1237     Ni1253   1.861       .  S
O1237      H1260   0.963       .  S
C1238      O1255   1.259       .  A
C1238      O1247   1.294       .  A
C1238      C1347   1.467       .  S
O1239     Ni1258   1.996       .  S
O1239      C1245   1.298       .  A
O1240     Ni1258   1.964       .  S
O1240      C1242   1.280       .  A
Ni1241     O1244   1.901       .  S
Ni1241     O1246   1.921       .  S
C1242      O1252   1.267       .  A
C1242      C1324   1.497       .  S
O1243     Ni1259   1.928       .  S
O1243      C1249   1.286       .  A
O1244      C1249   1.282       .  A
C1245      C1477   1.495       .  S
O1246      C1248   1.269       .  A
O1247     Ni1258   2.004       .  S
C1248      O1254   1.277       .  A
C1248      C1354   1.513       .  S
C1249      C1334   1.466       .  S
H1250      O1251   0.966       .  S
O1251     Ni1259   1.897       .  S
O1251     Ni1253   1.869       .  S
O1251     Ni1258   1.894       .  S
O1252     Ni1253   1.928       .  S
Ni1253     O1257   1.857       .  S
Ni1253     O1255   1.855       .  S
O1254     Ni1259   1.973       .  S
C1256      O1257   1.250       .  A
C1256      C1407   1.452       .  S
O1261     Ni1267   1.919       .  S
O1261      C1282   1.279       .  A
O1262     Ni1285   1.886   1_455  S
O1262      C1271   1.273       .  A
O1263     Ni1267   1.860       .  S
O1263     Ni1285   1.872       .  S
O1263     Ni1279   1.877       .  S
O1263      H1286   0.966       .  S
C1264      O1281   1.279       .  A
C1264      O1273   1.282       .  A
C1264      C1397   1.472       .  S
O1265     Ni1284   1.966       .  S
O1265      C1271   1.293       .  A
O1266     Ni1284   1.972   1_655  S
O1266      C1268   1.278       .  A
Ni1267     O1272   1.929       .  S
C1268      O1278   1.250       .  A
C1268      C1327   1.491       .  S
O1269      C1275   1.274       .  A
O1270      C1275   1.282       .  A
C1271      C1657   1.490       .  S
O1273     Ni1284   1.930       .  S
C1274      C1387   1.525       .  S
C1275      C1337   1.471       .  S
H1276      O1277   0.966       .  S
O1277     Ni1285   1.890   1_455  S
O1277     Ni1279   1.874   1_455  S
O1277     Ni1284   1.901       .  S
O1278     Ni1279   1.891       .  S
Ni1279     O1283   1.885       .  S
Ni1279     O1281   1.920   1_655  S
O1280     Ni1285   1.990   1_455  S
C1282      O1283   1.261       .  A
C1282      C1314   1.454       .  S
O1287     Ni1293   1.930       .  S
O1287      C1308   1.272       .  A
O1288     Ni1311   1.868       .  S
O1288      C1297   1.270       .  A
O1289     Ni1293   1.884       .  S
O1289     Ni1311   1.875       .  S
O1289     Ni1305   1.880       .  S
O1289      H1312   0.966       .  S
C1290      O1307   1.286   1_655  A
C1290      O1299   1.285       .  A
C1290      C1344   1.486       .  S
O1291     Ni1310   1.988       .  S
O1291      C1297   1.301       .  A
O1292     Ni1310   1.991       .  S
O1292      C1294   1.285       .  A
Ni1293     O1298   1.912       .  S
C1294      O1304   1.251       .  A
C1294      C1367   1.510       .  S
O1295     Ni1311   1.919       .  S
O1296      C1301   1.282       .  A
C1297      C1667   1.492       .  S
O1299     Ni1310   1.937   1_655  S
C1300      C1357   1.506   1_455  S
C1301      C1377   1.468       .  S
H1302      O1303   0.967       .  S
O1303     Ni1311   1.883       .  S
O1303     Ni1305   1.864       .  S
O1303     Ni1310   1.891       .  S
O1304     Ni1305   1.883       .  S
Ni1305     O1309   1.867       .  S
Ni1305     O1307   1.923       .  S
O1306     Ni1311   1.976       .  S
C1308      O1309   1.249       .  A
C1308      C1317   1.440       .  S
C1313      C1314   1.406   1_455  A
C1313      C1318   1.393       .  A
C1313      H1319   1.075   1_455  S
C1314      C1315   1.395       .  A
C1315      C1316   1.383   1_655  A
C1315      H1320   1.083       .  S
C1316      C1317   1.402       .  A
C1316      H1321   1.080       .  S
C1317      C1318   1.394       .  A
C1318      H1322   1.084       .  S
C1323      C1324   1.414       .  A
C1323      C1328   1.403       .  A
C1323      H1329   1.081       .  S
C1324      C1325   1.402       .  A
C1325      C1326   1.411       .  A
C1325      H1330   1.083       .  S
C1326      C1327   1.417       .  A
C1326      H1331   1.083       .  S
C1327      C1328   1.400       .  A
C1328      H1332   1.084       .  S
C1333      C1334   1.410       .  A
C1333      C1338   1.393       .  A
C1333      H1339   1.083       .  S
C1334      C1335   1.404       .  A
C1335      C1336   1.396       .  A
C1335      H1340   1.083       .  S
C1336      C1337   1.408       .  A
C1336      H1341   1.084       .  S
C1337      C1338   1.396       .  A
C1338      H1342   1.083       .  S
C1343      C1344   1.411       .  A
C1343      C1348   1.408       .  A
C1343      H1349   1.083       .  S
C1344      C1345   1.399       .  A
C1345      C1346   1.391       .  A
C1345      H1350   1.079   1_655  S
C1346      C1347   1.404       .  A
C1346      H1351   1.085       .  S
C1347      C1348   1.404       .  A
C1348      H1352   1.083       .  S
C1353      C1354   1.402       .  A
C1353      C1358   1.392       .  A
C1353      H1359   1.076       .  S
C1354      C1355   1.418       .  A
C1355      C1356   1.426       .  A
C1355      H1360   1.083       .  S
C1356      C1357   1.412       .  A
C1356      H1361   1.082       .  S
C1357      C1358   1.406       .  A
C1358      H1362   1.083   1_655  S
C1363      C1364   1.420       .  A
C1363      C1368   1.412       .  A
C1363      H1369   1.083       .  S
C1364      C1365   1.403       .  A
C1365      C1366   1.415       .  A
C1365      H1370   1.083       .  S
C1366      C1367   1.422       .  A
C1366      H1371   1.083       .  S
C1367      C1368   1.403       .  A
C1368      H1372   1.083       .  S
C1373      C1374   1.401       .  A
C1373      C1378   1.402       .  A
C1373      H1379   1.083       .  S
C1374      C1375   1.410       .  A
C1375      C1376   1.396       .  A
C1375      H1380   1.074       .  S
C1376      C1377   1.395       .  A
C1376      H1381   1.083       .  S
C1377      C1378   1.410       .  A
C1378      H1382   1.083   1_556  S
C1383      C1384   1.408       .  A
C1383      C1388   1.409       .  A
C1383      H1389   1.083       .  S
C1384      C1385   1.416       .  A
C1385      C1386   1.429       .  A
C1385      H1390   1.082       .  S
C1386      C1387   1.416       .  A
C1386      H1391   1.082       .  S
C1387      C1388   1.409       .  A
C1388      H1392   1.079       .  S
C1393      C1394   1.408       .  A
C1393      C1398   1.399       .  A
C1393      H1399   1.083       .  S
C1394      C1395   1.405       .  A
C1395      C1396   1.395       .  A
C1395      H1400   1.082       .  S
C1396      C1397   1.404       .  A
C1396      H1401   1.084       .  S
C1397      C1398   1.402       .  A
C1398      H1402   1.083       .  S
C1403      C1404   1.394   1_655  A
C1403      C1408   1.394       .  A
C1403      H1409   1.083       .  S
C1404      C1405   1.414       .  A
C1405      C1406   1.404       .  A
C1405      H1410   1.082       .  S
C1406      C1407   1.405   1_455  A
C1406      H1411   1.082       .  S
C1407      C1408   1.405       .  A
C1408      H1412   1.072       .  S
C1413      C1414   1.416       .  A
C1413      C1418   1.396       .  A
C1413      H1419   1.073       .  S
C1414      C1415   1.409       .  A
C1415      C1416   1.395       .  A
C1415      H1420   1.084       .  S
C1416      C1417   1.396       .  A
C1416      H1421   1.084       .  S
C1417      C1418   1.396       .  A
C1418      H1422   1.083       .  S
C1423      C1424   1.398       .  A
C1423      C1428   1.400       .  A
C1423      H1429   1.083       .  S
C1424      C1425   1.414       .  A
C1425      C1426   1.400       .  A
C1425      H1430   1.083       .  S
C1426      C1427   1.399       .  A
C1426      H1431   1.083       .  S
C1427      C1428   1.415       .  A
C1428      H1432   1.083       .  S
C1433      C1434   1.410       .  A
C1433      C1438   1.417       .  A
C1433      H1439   1.083       .  S
C1434      C1435   1.413       .  A
C1435      C1436   1.416       .  A
C1435      H1440   1.083       .  S
C1436      C1437   1.411       .  A
C1436      H1441   1.082       .  S
C1437      C1438   1.414       .  A
C1438      H1442   1.083       .  S
C1443      C1444   1.403       .  A
C1443      C1448   1.398       .  A
C1443      H1449   1.084       .  S
C1444      C1445   1.402       .  A
C1445      C1446   1.396       .  A
C1445      H1450   1.084       .  S
C1446      C1447   1.406       .  A
C1446      H1451   1.083       .  S
C1447      C1448   1.405       .  A
C1448      H1452   1.083       .  S
C1453      C1454   1.407       .  A
C1453      C1458   1.405       .  A
C1453      H1459   1.083       .  S
C1454      C1455   1.408       .  A
C1455      C1456   1.400       .  A
C1455      H1460   1.083       .  S
C1456      C1457   1.403       .  A
C1456      H1461   1.083       .  S
C1457      C1458   1.406       .  A
C1458      H1462   1.083       .  S
C1463      C1464   1.406       .  A
C1463      C1468   1.407       .  A
C1463      H1469   1.083       .  S
C1464      C1465   1.407       .  A
C1465      C1466   1.398       .  A
C1465      H1470   1.084       .  S
C1466      C1467   1.403       .  A
C1466      H1471   1.084       .  S
C1467      C1468   1.408       .  A
C1468      H1472   1.083       .  S
C1473      C1474   1.400       .  A
C1473      C1478   1.403       .  A
C1473      H1479   1.083       .  S
C1474      C1475   1.418       .  A
C1475      C1476   1.403       .  A
C1475      H1480   1.083       .  S
C1476      C1477   1.400       .  A
C1476      H1481   1.083       .  S
C1477      C1478   1.417       .  A
C1478      H1482   1.083       .  S
C1483      C1484   1.399       .  A
C1483      C1488   1.394       .  A
C1483      H1489   1.080       .  S
C1484      C1485   1.414       .  A
C1485      C1486   1.425       .  A
C1485      H1490   1.083       .  S
C1486      C1487   1.415       .  A
C1486      H1491   1.082       .  S
C1487      C1488   1.401       .  A
C1488      H1492   1.079       .  S
C1493      C1494   1.409       .  A
C1493      C1498   1.395       .  A
C1493      H1499   1.084       .  S
C1494      C1495   1.398       .  A
C1495      C1496   1.394       .  A
C1495      H1500   1.084       .  S
C1496      C1497   1.408       .  A
C1496      H1501   1.084       .  S
C1497      C1498   1.399       .  A
C1498      H1502   1.084       .  S
C1503      C1504   1.408       .  A
C1503      C1508   1.417       .  A
C1503      H1509   1.083       .  S
C1504      C1505   1.403       .  A
C1505      C1506   1.405       .  A
C1506      C1507   1.400       .  A
C1506      H1511   1.082       .  S
C1507      C1508   1.418       .  A
C1508      H1512   1.083       .  S
C1513      C1514   1.401       .  A
C1513      C1518   1.404       .  A
C1513      H1519   1.083       .  S
C1514      C1515   1.407       .  A
C1515      C1516   1.403       .  A
C1515      H1520   1.084       .  S
C1516      C1517   1.403       .  A
C1516      H1521   1.083       .  S
C1517      C1518   1.409       .  A
C1518      H1522   1.084       .  S
C1523      C1524   1.405   1_554  A
C1523      C1528   1.399       .  A
C1523      H1529   1.084       .  S
C1524      C1525   1.410       .  A
C1525      C1526   1.386       .  A
C1525      H1530   1.074       .  S
C1526      C1527   1.393       .  A
C1526      H1531   1.084       .  S
C1527      C1528   1.410   1_556  A
C1528      H1532   1.082       .  S
C1533      C1534   1.395       .  A
C1533      C1538   1.398   1_565  A
C1533      H1539   1.083       .  S
C1534      C1535   1.414       .  A
C1535      C1536   1.395       .  A
C1535      H1540   1.083       .  S
C1536      C1537   1.397   1_565  A
C1536      H1541   1.083       .  S
C1537      C1538   1.417       .  A
C1538      H1542   1.083       .  S
C1543      C1544   1.416       .  A
C1543      C1548   1.400       .  A
C1543      H1549   1.083       .  S
C1544      C1545   1.402       .  A
C1545      C1546   1.405       .  A
C1545      H1550   1.083       .  S
C1546      C1547   1.416       .  A
C1546      H1551   1.083       .  S
C1547      C1548   1.400       .  A
C1548      H1552   1.083       .  S
C1553      C1554   1.413       .  A
C1553      C1558   1.390       .  A
C1553      H1559   1.075       .  S
C1554      C1555   1.406       .  A
C1555      C1556   1.399       .  A
C1555      H1560   1.083       .  S
C1556      C1557   1.408       .  A
C1556      H1561   1.081       .  S
C1557      C1558   1.393       .  A
C1558      H1562   1.084       .  S
C1563      C1564   1.405       .  A
C1563      C1568   1.403       .  A
C1563      H1569   1.084       .  S
C1564      C1565   1.402       .  A
C1565      C1566   1.398       .  A
C1565      H1570   1.084       .  S
C1566      C1567   1.408       .  A
C1566      H1571   1.083       .  S
C1567      C1568   1.407       .  A
C1568      H1572   1.083       .  S
C1573      C1574   1.408       .  A
C1573      C1578   1.408       .  A
C1573      H1579   1.083       .  S
C1574      C1575   1.404       .  A
C1575      C1576   1.399       .  A
C1575      H1580   1.084       .  S
C1576      C1577   1.407       .  A
C1576      H1581   1.084       .  S
C1577      C1578   1.406       .  A
C1578      H1582   1.083       .  S
C1583      C1584   1.417       .  A
C1583      C1588   1.407       .  A
C1583      H1589   1.083       .  S
C1584      C1585   1.403       .  A
C1585      C1586   1.413       .  A
C1585      H1590   1.083       .  S
C1586      C1587   1.411       .  A
C1586      H1591   1.075   1_556  S
C1587      C1588   1.400       .  A
C1588      H1592   1.083       .  S
C1593      C1594   1.399       .  A
C1593      C1598   1.396       .  A
C1593      H1599   1.084       .  S
C1594      C1595   1.408       .  A
C1595      C1596   1.395       .  A
C1595      H1600   1.084       .  S
C1596      C1597   1.398       .  A
C1596      H1601   1.084       .  S
C1597      C1598   1.409       .  A
C1598      H1602   1.084       .  S
C1603      C1604   1.417       .  A
C1603      C1608   1.415       .  A
C1603      H1609   1.083       .  S
C1604      C1605   1.397       .  A
C1605      C1606   1.402       .  A
C1605      H1610   1.082       .  S
C1606      C1607   1.402       .  A
C1606      H1611   1.066       .  S
C1607      C1608   1.406       .  A
C1608      H1612   1.083       .  S
C1613      C1614   1.403       .  A
C1613      C1618   1.404       .  A
C1613      H1619   1.083       .  S
C1614      C1615   1.409       .  A
C1615      C1616   1.404       .  A
C1615      H1620   1.084       .  S
C1616      C1617   1.402       .  A
C1616      H1621   1.083       .  S
C1617      C1618   1.407       .  A
C1618      H1622   1.083       .  S
C1623      C1624   1.413       .  A
C1623      C1628   1.416       .  A
C1623      H1629   1.083       .  S
C1624      C1625   1.409       .  A
C1625      C1626   1.415       .  A
C1625      H1630   1.083       .  S
C1626      C1627   1.413       .  A
C1626      H1631   1.083       .  S
C1627      C1628   1.411       .  A
C1628      H1632   1.082       .  S
C1633      C1634   1.406       .  A
C1633      C1638   1.394       .  A
C1633      H1639   1.083       .  S
C1634      C1635   1.404       .  A
C1635      C1636   1.398       .  A
C1635      H1640   1.083       .  S
C1636      C1637   1.404       .  A
C1636      H1641   1.084       .  S
C1637      C1638   1.401       .  A
C1638      H1642   1.084       .  S
C1643      C1644   1.399       .  A
C1643      C1648   1.397       .  A
C1643      H1649   1.084       .  S
C1644      C1645   1.401       .  A
C1645      C1646   1.398       .  A
C1645      H1650   1.083       .  S
C1646      C1647   1.413       .  A
C1646      H1651   1.077       .  S
C1647      C1648   1.415       .  A
C1648      H1652   1.083       .  S
C1653      C1654   1.412   1_554  A
C1653      H1659   1.083       .  S
C1654      C1655   1.403   1_665  A
C1655      H1660   1.083       .  S
C1656      C1657   1.414       .  A
C1656      H1661   1.083       .  S
C1657      C1658   1.400       .  A
C1658      H1662   1.083       .  S
C1663      C1668   1.404       .  A
C1663      H1669   1.083       .  S
C1664      C1665   1.399       .  A
C1665      H1670   1.083       .  S
C1666      C1667   1.416       .  A
C1667      C1668   1.399       .  A
C1668      H1672   1.083       .  S
C1673      C1674   1.409       .  A
C1673      C1678   1.402       .  A
C1673      H1679   1.083       .  S
C1674      C1675   1.396       .  A
C1675      C1676   1.394       .  A
C1675      H1680   1.083       .  S
C1676      C1677   1.406       .  A
C1676      H1681   1.076       .  S
C1677      C1678   1.409       .  A
C1678      H1682   1.083   1_655  S
C1683      C1684   1.417       .  A
C1683      C1688   1.410       .  A
C1683      H1689   1.083       .  S
C1684      C1685   1.398       .  A
C1685      C1686   1.393       .  A
C1685      H1690   1.083       .  S
C1686      C1687   1.414       .  A
C1686      H1691   1.083       .  S
C1687      C1688   1.402       .  A
C1688      H1692   1.083       .  S
C1693      C1694   1.405       .  A
C1693      C1698   1.393       .  A
C1693      H1699   1.083       .  S
C1694      C1695   1.409       .  A
C1695      C1696   1.400       .  A
C1695      H1700   1.083       .  S
C1696      C1697   1.399       .  A
C1696      H1701   1.083       .  S
C1697      C1698   1.403       .  A
C1698      H1702   1.084   1_655  S
C1703      C1704   1.411       .  A
C1703      C1708   1.421       .  A
C1703      H1709   1.083       .  S
C1704      C1705   1.407       .  A
C1705      C1706   1.407       .  A
C1705      H1710   1.083       .  S
C1706      C1707   1.408       .  A
C1706      H1711   1.083   1_655  S
C1707      C1708   1.415       .  A
C1708      H1712   1.083       .  S
C1713      C1714   1.406       .  A
C1713      C1718   1.415       .  A
C1713      H1719   1.083       .  S
C1714      C1715   1.420       .  A
C1715      C1716   1.418       .  A
C1715      H1720   1.083       .  S
C1716      C1717   1.405       .  A
C1716      H1721   1.083       .  S
C1717      C1718   1.419       .  A
C1718      H1722   1.084       .  S
C1723      C1724   1.397       .  A
C1723      C1728   1.394       .  A
C1723      H1729   1.083       .  S
C1724      C1725   1.405       .  A
C1725      C1726   1.394       .  A
C1725      H1730   1.084       .  S
C1726      C1727   1.398       .  A
C1726      H1731   1.083       .  S
C1727      C1728   1.406       .  A
C1728      H1732   1.084       .  S
C1733      C1734   1.402       .  A
C1733      C1738   1.394       .  A
C1733      H1739   1.083       .  S
C1734      C1735   1.410       .  A
C1735      C1736   1.402       .  A
C1735      H1740   1.083       .  S
C1736      C1737   1.404       .  A
C1736      H1741   1.083       .  S
C1737      C1738   1.409       .  A
C1738      H1742   1.083       .  S
C1743      C1744   1.400       .  A
C1743      C1748   1.398       .  A
C1743      H1749   1.084       .  S
C1744      C1745   1.403       .  A
C1745      C1746   1.393       .  A
C1745      H1750   1.084       .  S
C1746      C1747   1.405       .  A
C1746      H1751   1.083       .  S
C1747      C1748   1.408       .  A
C1748      H1752   1.083       .  S
C1753      C1754   1.419       .  A
C1753      C1758   1.436       .  A
C1753      H1759   1.082       .  S
C1754      C1755   1.404       .  A
C1755      C1756   1.390       .  A
C1755      H1760   1.075       .  S
C1756      C1757   1.406       .  A
C1756      H1761   1.083   1_455  S
C1757      C1758   1.419       .  A
C1758      H1762   1.082       .  S
C1763      C1764   1.406       .  A
C1763      C1768   1.393       .  A
C1763      H1769   1.083       .  S
C1764      C1765   1.406       .  A
C1765      C1766   1.393       .  A
C1765      H1770   1.083       .  S
C1766      C1767   1.403       .  A
C1766      H1771   1.083       .  S
C1767      C1768   1.401       .  A
C1768      H1772   1.084       .  S
C1773      C1774   1.403       .  A
C1773      C1778   1.409       .  A
C1773      H1779   1.083       .  S
C1774      C1775   1.410       .  A
C1775      C1776   1.406       .  A
C1775      H1780   1.082       .  S
C1776      C1777   1.404       .  A
C1776      H1781   1.084       .  S
C1777      C1778   1.412       .  A
C1778      H1782   1.083       .  S
C1783      C1784   1.404       .  A
C1783      C1788   1.404   1_455  A
C1783      H1789   1.083       .  S
C1784      C1785   1.407       .  A
C1785      C1786   1.393       .  A
C1785      H1790   1.075       .  S
C1786      C1787   1.395   1_455  A
C1786      H1791   1.083       .  S
C1787      C1788   1.413       .  A
C1788      H1792   1.083       .  S
